
---------- Begin Simulation Statistics ----------
simSeconds                                   0.263817                       # Number of seconds simulated (Second)
simTicks                                 263817053000                       # Number of ticks simulated (Tick)
finalTick                                1011575198500                       # Number of ticks from beginning of simulation (restored from checkpoints and never reset) (Tick)
simFreq                                  1000000000000                       # The number of ticks per simulated second ((Tick/Second))
hostSeconds                                    899.69                       # Real time elapsed on the host (Second)
hostTickRate                                293229690                       # The number of ticks simulated per host second (ticks/s) ((Tick/Second))
hostMemory                                  413644976                       # Number of bytes of host memory used (Byte)
simInsts                                   1300000002                       # Number of instructions simulated (Count)
simOps                                     1371756052                       # Number of ops (including micro ops) simulated (Count)
hostInstRate                                  1444935                       # Simulator instruction rate (inst/s) ((Count/Second))
hostOpRate                                    1524691                       # Simulator op (including micro ops) rate (op/s) ((Count/Second))
system.clk_domain.clock                          1000                       # Clock period in ticks (Tick)
system.cpu.numCycles                                0                       # Number of cpu cycles simulated (Cycle)
system.cpu.numWorkItemsStarted                      0                       # Number of work items this cpu started (Count)
system.cpu.numWorkItemsCompleted                    0                       # Number of work items this cpu completed (Count)
system.cpu.dcache.demandHits::switch_cpus_1.data     72100129                       # number of demand (read+write) hits (Count)
system.cpu.dcache.demandHits::total          72100129                       # number of demand (read+write) hits (Count)
system.cpu.dcache.overallHits::switch_cpus_1.data     72100129                       # number of overall hits (Count)
system.cpu.dcache.overallHits::total         72100129                       # number of overall hits (Count)
system.cpu.dcache.demandMisses::switch_cpus_1.data     37483281                       # number of demand (read+write) misses (Count)
system.cpu.dcache.demandMisses::total        37483281                       # number of demand (read+write) misses (Count)
system.cpu.dcache.overallMisses::switch_cpus_1.data     37483281                       # number of overall misses (Count)
system.cpu.dcache.overallMisses::total       37483281                       # number of overall misses (Count)
system.cpu.dcache.demandMissLatency::switch_cpus_1.data 1153195586052                       # number of demand (read+write) miss ticks (Tick)
system.cpu.dcache.demandMissLatency::total 1153195586052                       # number of demand (read+write) miss ticks (Tick)
system.cpu.dcache.overallMissLatency::switch_cpus_1.data 1153195586052                       # number of overall miss ticks (Tick)
system.cpu.dcache.overallMissLatency::total 1153195586052                       # number of overall miss ticks (Tick)
system.cpu.dcache.demandAccesses::switch_cpus_1.data    109583410                       # number of demand (read+write) accesses (Count)
system.cpu.dcache.demandAccesses::total     109583410                       # number of demand (read+write) accesses (Count)
system.cpu.dcache.overallAccesses::switch_cpus_1.data    109583410                       # number of overall (read+write) accesses (Count)
system.cpu.dcache.overallAccesses::total    109583410                       # number of overall (read+write) accesses (Count)
system.cpu.dcache.demandMissRate::switch_cpus_1.data     0.342053                       # miss rate for demand accesses (Ratio)
system.cpu.dcache.demandMissRate::total      0.342053                       # miss rate for demand accesses (Ratio)
system.cpu.dcache.overallMissRate::switch_cpus_1.data     0.342053                       # miss rate for overall accesses (Ratio)
system.cpu.dcache.overallMissRate::total     0.342053                       # miss rate for overall accesses (Ratio)
system.cpu.dcache.demandAvgMissLatency::switch_cpus_1.data 30765.598829                       # average overall miss latency ((Cycle/Count))
system.cpu.dcache.demandAvgMissLatency::total 30765.598829                       # average overall miss latency ((Cycle/Count))
system.cpu.dcache.overallAvgMissLatency::switch_cpus_1.data 30765.598829                       # average overall miss latency ((Cycle/Count))
system.cpu.dcache.overallAvgMissLatency::total 30765.598829                       # average overall miss latency ((Cycle/Count))
system.cpu.dcache.blockedCycles::no_mshrs    388381640                       # number of cycles access was blocked (Cycle)
system.cpu.dcache.blockedCycles::no_targets            0                       # number of cycles access was blocked (Cycle)
system.cpu.dcache.blockedCauses::no_mshrs     23627958                       # number of times access was blocked (Count)
system.cpu.dcache.blockedCauses::no_targets            0                       # number of times access was blocked (Count)
system.cpu.dcache.avgBlocked::no_mshrs      16.437376                       # average number of cycles each access was blocked ((Cycle/Count))
system.cpu.dcache.avgBlocked::no_targets          nan                       # average number of cycles each access was blocked ((Cycle/Count))
system.cpu.dcache.writebacks::writebacks      1184913                       # number of writebacks (Count)
system.cpu.dcache.writebacks::total           1184913                       # number of writebacks (Count)
system.cpu.dcache.demandMshrHits::switch_cpus_1.data      6157914                       # number of demand (read+write) MSHR hits (Count)
system.cpu.dcache.demandMshrHits::total       6157914                       # number of demand (read+write) MSHR hits (Count)
system.cpu.dcache.overallMshrHits::switch_cpus_1.data      6157914                       # number of overall MSHR hits (Count)
system.cpu.dcache.overallMshrHits::total      6157914                       # number of overall MSHR hits (Count)
system.cpu.dcache.demandMshrMisses::switch_cpus_1.data     31325367                       # number of demand (read+write) MSHR misses (Count)
system.cpu.dcache.demandMshrMisses::total     31325367                       # number of demand (read+write) MSHR misses (Count)
system.cpu.dcache.overallMshrMisses::switch_cpus_1.data     31325367                       # number of overall MSHR misses (Count)
system.cpu.dcache.overallMshrMisses::total     31325367                       # number of overall MSHR misses (Count)
system.cpu.dcache.demandMshrMissLatency::switch_cpus_1.data 935102737160                       # number of demand (read+write) MSHR miss ticks (Tick)
system.cpu.dcache.demandMshrMissLatency::total 935102737160                       # number of demand (read+write) MSHR miss ticks (Tick)
system.cpu.dcache.overallMshrMissLatency::switch_cpus_1.data 935102737160                       # number of overall MSHR miss ticks (Tick)
system.cpu.dcache.overallMshrMissLatency::total 935102737160                       # number of overall MSHR miss ticks (Tick)
system.cpu.dcache.demandMshrMissRate::switch_cpus_1.data     0.285859                       # mshr miss ratio for demand accesses (Ratio)
system.cpu.dcache.demandMshrMissRate::total     0.285859                       # mshr miss ratio for demand accesses (Ratio)
system.cpu.dcache.overallMshrMissRate::switch_cpus_1.data     0.285859                       # mshr miss ratio for overall accesses (Ratio)
system.cpu.dcache.overallMshrMissRate::total     0.285859                       # mshr miss ratio for overall accesses (Ratio)
system.cpu.dcache.demandAvgMshrMissLatency::switch_cpus_1.data 29851.293910                       # average overall mshr miss latency ((Cycle/Count))
system.cpu.dcache.demandAvgMshrMissLatency::total 29851.293910                       # average overall mshr miss latency ((Cycle/Count))
system.cpu.dcache.overallAvgMshrMissLatency::switch_cpus_1.data 29851.293910                       # average overall mshr miss latency ((Cycle/Count))
system.cpu.dcache.overallAvgMshrMissLatency::total 29851.293910                       # average overall mshr miss latency ((Cycle/Count))
system.cpu.dcache.replacements               31325364                       # number of replacements (Count)
system.cpu.dcache.LoadLockedReq.hits::switch_cpus_1.data           21                       # number of LoadLockedReq hits (Count)
system.cpu.dcache.LoadLockedReq.hits::total           21                       # number of LoadLockedReq hits (Count)
system.cpu.dcache.LoadLockedReq.accesses::switch_cpus_1.data           21                       # number of LoadLockedReq accesses(hits+misses) (Count)
system.cpu.dcache.LoadLockedReq.accesses::total           21                       # number of LoadLockedReq accesses(hits+misses) (Count)
system.cpu.dcache.ReadReq.hits::switch_cpus_1.data     69864673                       # number of ReadReq hits (Count)
system.cpu.dcache.ReadReq.hits::total        69864673                       # number of ReadReq hits (Count)
system.cpu.dcache.ReadReq.misses::switch_cpus_1.data     34882795                       # number of ReadReq misses (Count)
system.cpu.dcache.ReadReq.misses::total      34882795                       # number of ReadReq misses (Count)
system.cpu.dcache.ReadReq.missLatency::switch_cpus_1.data 977557505500                       # number of ReadReq miss ticks (Tick)
system.cpu.dcache.ReadReq.missLatency::total 977557505500                       # number of ReadReq miss ticks (Tick)
system.cpu.dcache.ReadReq.accesses::switch_cpus_1.data    104747468                       # number of ReadReq accesses(hits+misses) (Count)
system.cpu.dcache.ReadReq.accesses::total    104747468                       # number of ReadReq accesses(hits+misses) (Count)
system.cpu.dcache.ReadReq.missRate::switch_cpus_1.data     0.333018                       # miss rate for ReadReq accesses (Ratio)
system.cpu.dcache.ReadReq.missRate::total     0.333018                       # miss rate for ReadReq accesses (Ratio)
system.cpu.dcache.ReadReq.avgMissLatency::switch_cpus_1.data 28024.059010                       # average ReadReq miss latency ((Tick/Count))
system.cpu.dcache.ReadReq.avgMissLatency::total 28024.059010                       # average ReadReq miss latency ((Tick/Count))
system.cpu.dcache.ReadReq.mshrHits::switch_cpus_1.data      4695104                       # number of ReadReq MSHR hits (Count)
system.cpu.dcache.ReadReq.mshrHits::total      4695104                       # number of ReadReq MSHR hits (Count)
system.cpu.dcache.ReadReq.mshrMisses::switch_cpus_1.data     30187691                       # number of ReadReq MSHR misses (Count)
system.cpu.dcache.ReadReq.mshrMisses::total     30187691                       # number of ReadReq MSHR misses (Count)
system.cpu.dcache.ReadReq.mshrMissLatency::switch_cpus_1.data 874252946000                       # number of ReadReq MSHR miss ticks (Tick)
system.cpu.dcache.ReadReq.mshrMissLatency::total 874252946000                       # number of ReadReq MSHR miss ticks (Tick)
system.cpu.dcache.ReadReq.mshrMissRate::switch_cpus_1.data     0.288195                       # mshr miss rate for ReadReq accesses (Ratio)
system.cpu.dcache.ReadReq.mshrMissRate::total     0.288195                       # mshr miss rate for ReadReq accesses (Ratio)
system.cpu.dcache.ReadReq.avgMshrMissLatency::switch_cpus_1.data 28960.576879                       # average ReadReq mshr miss latency ((Tick/Count))
system.cpu.dcache.ReadReq.avgMshrMissLatency::total 28960.576879                       # average ReadReq mshr miss latency ((Tick/Count))
system.cpu.dcache.StoreCondReq.hits::switch_cpus_1.data           14                       # number of StoreCondReq hits (Count)
system.cpu.dcache.StoreCondReq.hits::total           14                       # number of StoreCondReq hits (Count)
system.cpu.dcache.StoreCondReq.accesses::switch_cpus_1.data           14                       # number of StoreCondReq accesses(hits+misses) (Count)
system.cpu.dcache.StoreCondReq.accesses::total           14                       # number of StoreCondReq accesses(hits+misses) (Count)
system.cpu.dcache.WriteReq.hits::switch_cpus_1.data      2235456                       # number of WriteReq hits (Count)
system.cpu.dcache.WriteReq.hits::total        2235456                       # number of WriteReq hits (Count)
system.cpu.dcache.WriteReq.misses::switch_cpus_1.data      2600486                       # number of WriteReq misses (Count)
system.cpu.dcache.WriteReq.misses::total      2600486                       # number of WriteReq misses (Count)
system.cpu.dcache.WriteReq.missLatency::switch_cpus_1.data 175638080552                       # number of WriteReq miss ticks (Tick)
system.cpu.dcache.WriteReq.missLatency::total 175638080552                       # number of WriteReq miss ticks (Tick)
system.cpu.dcache.WriteReq.accesses::switch_cpus_1.data      4835942                       # number of WriteReq accesses(hits+misses) (Count)
system.cpu.dcache.WriteReq.accesses::total      4835942                       # number of WriteReq accesses(hits+misses) (Count)
system.cpu.dcache.WriteReq.missRate::switch_cpus_1.data     0.537741                       # miss rate for WriteReq accesses (Ratio)
system.cpu.dcache.WriteReq.missRate::total     0.537741                       # miss rate for WriteReq accesses (Ratio)
system.cpu.dcache.WriteReq.avgMissLatency::switch_cpus_1.data 67540.483030                       # average WriteReq miss latency ((Tick/Count))
system.cpu.dcache.WriteReq.avgMissLatency::total 67540.483030                       # average WriteReq miss latency ((Tick/Count))
system.cpu.dcache.WriteReq.mshrHits::switch_cpus_1.data      1462810                       # number of WriteReq MSHR hits (Count)
system.cpu.dcache.WriteReq.mshrHits::total      1462810                       # number of WriteReq MSHR hits (Count)
system.cpu.dcache.WriteReq.mshrMisses::switch_cpus_1.data      1137676                       # number of WriteReq MSHR misses (Count)
system.cpu.dcache.WriteReq.mshrMisses::total      1137676                       # number of WriteReq MSHR misses (Count)
system.cpu.dcache.WriteReq.mshrMissLatency::switch_cpus_1.data  60849791160                       # number of WriteReq MSHR miss ticks (Tick)
system.cpu.dcache.WriteReq.mshrMissLatency::total  60849791160                       # number of WriteReq MSHR miss ticks (Tick)
system.cpu.dcache.WriteReq.mshrMissRate::switch_cpus_1.data     0.235254                       # mshr miss rate for WriteReq accesses (Ratio)
system.cpu.dcache.WriteReq.mshrMissRate::total     0.235254                       # mshr miss rate for WriteReq accesses (Ratio)
system.cpu.dcache.WriteReq.avgMshrMissLatency::switch_cpus_1.data 53486.046256                       # average WriteReq mshr miss latency ((Tick/Count))
system.cpu.dcache.WriteReq.avgMshrMissLatency::total 53486.046256                       # average WriteReq mshr miss latency ((Tick/Count))
system.cpu.dcache.power_state.pwrStateResidencyTicks::UNDEFINED 1011575198500                       # Cumulative time (in ticks) in various power states (Tick)
system.cpu.dcache.tags.tagsInUse                  256                       # Average ticks per tags in use ((Tick/Count))
system.cpu.dcache.tags.totalRefs            103427254                       # Total number of references to valid blocks. (Count)
system.cpu.dcache.tags.sampledRefs           31325620                       # Sample count of references to valid blocks. (Count)
system.cpu.dcache.tags.avgRefs               3.301683                       # Average number of references to valid blocks. ((Count/Count))
system.cpu.dcache.tags.warmupTick                   0                       # The tick when the warmup percentage was hit. (Tick)
system.cpu.dcache.tags.occupancies::switch_cpus.data     0.005325                       # Average occupied blocks per tick, per requestor ((Count/Tick))
system.cpu.dcache.tags.occupancies::switch_cpus_1.data   255.994675                       # Average occupied blocks per tick, per requestor ((Count/Tick))
system.cpu.dcache.tags.avgOccs::switch_cpus.data     0.000021                       # Average percentage of cache occupancy ((Ratio/Tick))
system.cpu.dcache.tags.avgOccs::switch_cpus_1.data     0.999979                       # Average percentage of cache occupancy ((Ratio/Tick))
system.cpu.dcache.tags.avgOccs::total               1                       # Average percentage of cache occupancy ((Ratio/Tick))
system.cpu.dcache.tags.occupanciesTaskId::1024          256                       # Occupied blocks per task id (Count)
system.cpu.dcache.tags.ageTaskId_1024::0          180                       # Occupied blocks per task id, per block age (Count)
system.cpu.dcache.tags.ageTaskId_1024::1           76                       # Occupied blocks per task id, per block age (Count)
system.cpu.dcache.tags.ratioOccsTaskId::1024            1                       # Ratio of occupied blocks and all blocks, per task id (Ratio)
system.cpu.dcache.tags.tagAccesses          250492254                       # Number of tag accesses (Count)
system.cpu.dcache.tags.dataAccesses         250492254                       # Number of data accesses (Count)
system.cpu.dcache.tags.power_state.pwrStateResidencyTicks::UNDEFINED 1011575198500                       # Cumulative time (in ticks) in various power states (Tick)
system.cpu.exec_context.thread_0.numInsts            0                       # Number of instructions committed (Count)
system.cpu.exec_context.thread_0.numOps             0                       # Number of ops (including micro ops) committed (Count)
system.cpu.exec_context.thread_0.numIntAluAccesses            0                       # Number of integer alu accesses (Count)
system.cpu.exec_context.thread_0.numFpAluAccesses            0                       # Number of float alu accesses (Count)
system.cpu.exec_context.thread_0.numVecAluAccesses            0                       # Number of vector alu accesses (Count)
system.cpu.exec_context.thread_0.numCallsReturns            0                       # Number of times a function call or return occured (Count)
system.cpu.exec_context.thread_0.numCondCtrlInsts            0                       # Number of instructions that are conditional controls (Count)
system.cpu.exec_context.thread_0.numIntInsts            0                       # Number of integer instructions (Count)
system.cpu.exec_context.thread_0.numFpInsts            0                       # Number of float instructions (Count)
system.cpu.exec_context.thread_0.numVecInsts            0                       # Number of vector instructions (Count)
system.cpu.exec_context.thread_0.numIntRegReads            0                       # Number of times the integer registers were read (Count)
system.cpu.exec_context.thread_0.numIntRegWrites            0                       # Number of times the integer registers were written (Count)
system.cpu.exec_context.thread_0.numFpRegReads            0                       # Number of times the floating registers were read (Count)
system.cpu.exec_context.thread_0.numFpRegWrites            0                       # Number of times the floating registers were written (Count)
system.cpu.exec_context.thread_0.numVecRegReads            0                       # Number of times the vector registers were read (Count)
system.cpu.exec_context.thread_0.numVecRegWrites            0                       # Number of times the vector registers were written (Count)
system.cpu.exec_context.thread_0.numVecPredRegReads            0                       # Number of times the predicate registers were read (Count)
system.cpu.exec_context.thread_0.numVecPredRegWrites            0                       # Number of times the predicate registers were written (Count)
system.cpu.exec_context.thread_0.numMemRefs            0                       # Number of memory refs (Count)
system.cpu.exec_context.thread_0.numLoadInsts            0                       # Number of load instructions (Count)
system.cpu.exec_context.thread_0.numStoreInsts            0                       # Number of store instructions (Count)
system.cpu.exec_context.thread_0.numIdleCycles            0                       # Number of idle cycles (Cycle)
system.cpu.exec_context.thread_0.numBusyCycles            0                       # Number of busy cycles (Cycle)
system.cpu.exec_context.thread_0.notIdleFraction            1                       # Percentage of non-idle cycles (Ratio)
system.cpu.exec_context.thread_0.idleFraction            0                       # Percentage of idle cycles (Ratio)
system.cpu.exec_context.thread_0.statExecutedInstType::No_OpClass            0                       # Class of executed instruction. (Count)
system.cpu.exec_context.thread_0.statExecutedInstType::IntAlu            0                       # Class of executed instruction. (Count)
system.cpu.exec_context.thread_0.statExecutedInstType::IntMult            0                       # Class of executed instruction. (Count)
system.cpu.exec_context.thread_0.statExecutedInstType::IntDiv            0                       # Class of executed instruction. (Count)
system.cpu.exec_context.thread_0.statExecutedInstType::FloatAdd            0                       # Class of executed instruction. (Count)
system.cpu.exec_context.thread_0.statExecutedInstType::FloatCmp            0                       # Class of executed instruction. (Count)
system.cpu.exec_context.thread_0.statExecutedInstType::FloatCvt            0                       # Class of executed instruction. (Count)
system.cpu.exec_context.thread_0.statExecutedInstType::FloatMult            0                       # Class of executed instruction. (Count)
system.cpu.exec_context.thread_0.statExecutedInstType::FloatMultAcc            0                       # Class of executed instruction. (Count)
system.cpu.exec_context.thread_0.statExecutedInstType::FloatDiv            0                       # Class of executed instruction. (Count)
system.cpu.exec_context.thread_0.statExecutedInstType::FloatMisc            0                       # Class of executed instruction. (Count)
system.cpu.exec_context.thread_0.statExecutedInstType::FloatSqrt            0                       # Class of executed instruction. (Count)
system.cpu.exec_context.thread_0.statExecutedInstType::SimdAdd            0                       # Class of executed instruction. (Count)
system.cpu.exec_context.thread_0.statExecutedInstType::SimdAddAcc            0                       # Class of executed instruction. (Count)
system.cpu.exec_context.thread_0.statExecutedInstType::SimdAlu            0                       # Class of executed instruction. (Count)
system.cpu.exec_context.thread_0.statExecutedInstType::SimdCmp            0                       # Class of executed instruction. (Count)
system.cpu.exec_context.thread_0.statExecutedInstType::SimdCvt            0                       # Class of executed instruction. (Count)
system.cpu.exec_context.thread_0.statExecutedInstType::SimdMisc            0                       # Class of executed instruction. (Count)
system.cpu.exec_context.thread_0.statExecutedInstType::SimdMult            0                       # Class of executed instruction. (Count)
system.cpu.exec_context.thread_0.statExecutedInstType::SimdMultAcc            0                       # Class of executed instruction. (Count)
system.cpu.exec_context.thread_0.statExecutedInstType::SimdShift            0                       # Class of executed instruction. (Count)
system.cpu.exec_context.thread_0.statExecutedInstType::SimdShiftAcc            0                       # Class of executed instruction. (Count)
system.cpu.exec_context.thread_0.statExecutedInstType::SimdDiv            0                       # Class of executed instruction. (Count)
system.cpu.exec_context.thread_0.statExecutedInstType::SimdSqrt            0                       # Class of executed instruction. (Count)
system.cpu.exec_context.thread_0.statExecutedInstType::SimdFloatAdd            0                       # Class of executed instruction. (Count)
system.cpu.exec_context.thread_0.statExecutedInstType::SimdFloatAlu            0                       # Class of executed instruction. (Count)
system.cpu.exec_context.thread_0.statExecutedInstType::SimdFloatCmp            0                       # Class of executed instruction. (Count)
system.cpu.exec_context.thread_0.statExecutedInstType::SimdFloatCvt            0                       # Class of executed instruction. (Count)
system.cpu.exec_context.thread_0.statExecutedInstType::SimdFloatDiv            0                       # Class of executed instruction. (Count)
system.cpu.exec_context.thread_0.statExecutedInstType::SimdFloatMisc            0                       # Class of executed instruction. (Count)
system.cpu.exec_context.thread_0.statExecutedInstType::SimdFloatMult            0                       # Class of executed instruction. (Count)
system.cpu.exec_context.thread_0.statExecutedInstType::SimdFloatMultAcc            0                       # Class of executed instruction. (Count)
system.cpu.exec_context.thread_0.statExecutedInstType::SimdFloatSqrt            0                       # Class of executed instruction. (Count)
system.cpu.exec_context.thread_0.statExecutedInstType::SimdReduceAdd            0                       # Class of executed instruction. (Count)
system.cpu.exec_context.thread_0.statExecutedInstType::SimdReduceAlu            0                       # Class of executed instruction. (Count)
system.cpu.exec_context.thread_0.statExecutedInstType::SimdReduceCmp            0                       # Class of executed instruction. (Count)
system.cpu.exec_context.thread_0.statExecutedInstType::SimdFloatReduceAdd            0                       # Class of executed instruction. (Count)
system.cpu.exec_context.thread_0.statExecutedInstType::SimdFloatReduceCmp            0                       # Class of executed instruction. (Count)
system.cpu.exec_context.thread_0.statExecutedInstType::SimdAes            0                       # Class of executed instruction. (Count)
system.cpu.exec_context.thread_0.statExecutedInstType::SimdAesMix            0                       # Class of executed instruction. (Count)
system.cpu.exec_context.thread_0.statExecutedInstType::SimdSha1Hash            0                       # Class of executed instruction. (Count)
system.cpu.exec_context.thread_0.statExecutedInstType::SimdSha1Hash2            0                       # Class of executed instruction. (Count)
system.cpu.exec_context.thread_0.statExecutedInstType::SimdSha256Hash            0                       # Class of executed instruction. (Count)
system.cpu.exec_context.thread_0.statExecutedInstType::SimdSha256Hash2            0                       # Class of executed instruction. (Count)
system.cpu.exec_context.thread_0.statExecutedInstType::SimdShaSigma2            0                       # Class of executed instruction. (Count)
system.cpu.exec_context.thread_0.statExecutedInstType::SimdShaSigma3            0                       # Class of executed instruction. (Count)
system.cpu.exec_context.thread_0.statExecutedInstType::SimdPredAlu            0                       # Class of executed instruction. (Count)
system.cpu.exec_context.thread_0.statExecutedInstType::MemRead            0                       # Class of executed instruction. (Count)
system.cpu.exec_context.thread_0.statExecutedInstType::MemWrite            0                       # Class of executed instruction. (Count)
system.cpu.exec_context.thread_0.statExecutedInstType::FloatMemRead            0                       # Class of executed instruction. (Count)
system.cpu.exec_context.thread_0.statExecutedInstType::FloatMemWrite            0                       # Class of executed instruction. (Count)
system.cpu.exec_context.thread_0.statExecutedInstType::IprAccess            0                       # Class of executed instruction. (Count)
system.cpu.exec_context.thread_0.statExecutedInstType::InstPrefetch            0                       # Class of executed instruction. (Count)
system.cpu.exec_context.thread_0.statExecutedInstType::total            0                       # Class of executed instruction. (Count)
system.cpu.icache.demandHits::switch_cpus_1.inst     23975859                       # number of demand (read+write) hits (Count)
system.cpu.icache.demandHits::total          23975859                       # number of demand (read+write) hits (Count)
system.cpu.icache.overallHits::switch_cpus_1.inst     23975859                       # number of overall hits (Count)
system.cpu.icache.overallHits::total         23975859                       # number of overall hits (Count)
system.cpu.icache.demandMisses::switch_cpus_1.inst           74                       # number of demand (read+write) misses (Count)
system.cpu.icache.demandMisses::total              74                       # number of demand (read+write) misses (Count)
system.cpu.icache.overallMisses::switch_cpus_1.inst           74                       # number of overall misses (Count)
system.cpu.icache.overallMisses::total             74                       # number of overall misses (Count)
system.cpu.icache.demandMissLatency::switch_cpus_1.inst      6398500                       # number of demand (read+write) miss ticks (Tick)
system.cpu.icache.demandMissLatency::total      6398500                       # number of demand (read+write) miss ticks (Tick)
system.cpu.icache.overallMissLatency::switch_cpus_1.inst      6398500                       # number of overall miss ticks (Tick)
system.cpu.icache.overallMissLatency::total      6398500                       # number of overall miss ticks (Tick)
system.cpu.icache.demandAccesses::switch_cpus_1.inst     23975933                       # number of demand (read+write) accesses (Count)
system.cpu.icache.demandAccesses::total      23975933                       # number of demand (read+write) accesses (Count)
system.cpu.icache.overallAccesses::switch_cpus_1.inst     23975933                       # number of overall (read+write) accesses (Count)
system.cpu.icache.overallAccesses::total     23975933                       # number of overall (read+write) accesses (Count)
system.cpu.icache.demandMissRate::switch_cpus_1.inst     0.000003                       # miss rate for demand accesses (Ratio)
system.cpu.icache.demandMissRate::total      0.000003                       # miss rate for demand accesses (Ratio)
system.cpu.icache.overallMissRate::switch_cpus_1.inst     0.000003                       # miss rate for overall accesses (Ratio)
system.cpu.icache.overallMissRate::total     0.000003                       # miss rate for overall accesses (Ratio)
system.cpu.icache.demandAvgMissLatency::switch_cpus_1.inst 86466.216216                       # average overall miss latency ((Cycle/Count))
system.cpu.icache.demandAvgMissLatency::total 86466.216216                       # average overall miss latency ((Cycle/Count))
system.cpu.icache.overallAvgMissLatency::switch_cpus_1.inst 86466.216216                       # average overall miss latency ((Cycle/Count))
system.cpu.icache.overallAvgMissLatency::total 86466.216216                       # average overall miss latency ((Cycle/Count))
system.cpu.icache.blockedCycles::no_mshrs          258                       # number of cycles access was blocked (Cycle)
system.cpu.icache.blockedCycles::no_targets            0                       # number of cycles access was blocked (Cycle)
system.cpu.icache.blockedCauses::no_mshrs            4                       # number of times access was blocked (Count)
system.cpu.icache.blockedCauses::no_targets            0                       # number of times access was blocked (Count)
system.cpu.icache.avgBlocked::no_mshrs      64.500000                       # average number of cycles each access was blocked ((Cycle/Count))
system.cpu.icache.avgBlocked::no_targets          nan                       # average number of cycles each access was blocked ((Cycle/Count))
system.cpu.icache.writebacks::writebacks           64                       # number of writebacks (Count)
system.cpu.icache.writebacks::total                64                       # number of writebacks (Count)
system.cpu.icache.demandMshrHits::switch_cpus_1.inst           10                       # number of demand (read+write) MSHR hits (Count)
system.cpu.icache.demandMshrHits::total            10                       # number of demand (read+write) MSHR hits (Count)
system.cpu.icache.overallMshrHits::switch_cpus_1.inst           10                       # number of overall MSHR hits (Count)
system.cpu.icache.overallMshrHits::total           10                       # number of overall MSHR hits (Count)
system.cpu.icache.demandMshrMisses::switch_cpus_1.inst           64                       # number of demand (read+write) MSHR misses (Count)
system.cpu.icache.demandMshrMisses::total           64                       # number of demand (read+write) MSHR misses (Count)
system.cpu.icache.overallMshrMisses::switch_cpus_1.inst           64                       # number of overall MSHR misses (Count)
system.cpu.icache.overallMshrMisses::total           64                       # number of overall MSHR misses (Count)
system.cpu.icache.demandMshrMissLatency::switch_cpus_1.inst      5627000                       # number of demand (read+write) MSHR miss ticks (Tick)
system.cpu.icache.demandMshrMissLatency::total      5627000                       # number of demand (read+write) MSHR miss ticks (Tick)
system.cpu.icache.overallMshrMissLatency::switch_cpus_1.inst      5627000                       # number of overall MSHR miss ticks (Tick)
system.cpu.icache.overallMshrMissLatency::total      5627000                       # number of overall MSHR miss ticks (Tick)
system.cpu.icache.demandMshrMissRate::switch_cpus_1.inst     0.000003                       # mshr miss ratio for demand accesses (Ratio)
system.cpu.icache.demandMshrMissRate::total     0.000003                       # mshr miss ratio for demand accesses (Ratio)
system.cpu.icache.overallMshrMissRate::switch_cpus_1.inst     0.000003                       # mshr miss ratio for overall accesses (Ratio)
system.cpu.icache.overallMshrMissRate::total     0.000003                       # mshr miss ratio for overall accesses (Ratio)
system.cpu.icache.demandAvgMshrMissLatency::switch_cpus_1.inst 87921.875000                       # average overall mshr miss latency ((Cycle/Count))
system.cpu.icache.demandAvgMshrMissLatency::total 87921.875000                       # average overall mshr miss latency ((Cycle/Count))
system.cpu.icache.overallAvgMshrMissLatency::switch_cpus_1.inst 87921.875000                       # average overall mshr miss latency ((Cycle/Count))
system.cpu.icache.overallAvgMshrMissLatency::total 87921.875000                       # average overall mshr miss latency ((Cycle/Count))
system.cpu.icache.replacements                     64                       # number of replacements (Count)
system.cpu.icache.ReadReq.hits::switch_cpus_1.inst     23975859                       # number of ReadReq hits (Count)
system.cpu.icache.ReadReq.hits::total        23975859                       # number of ReadReq hits (Count)
system.cpu.icache.ReadReq.misses::switch_cpus_1.inst           74                       # number of ReadReq misses (Count)
system.cpu.icache.ReadReq.misses::total            74                       # number of ReadReq misses (Count)
system.cpu.icache.ReadReq.missLatency::switch_cpus_1.inst      6398500                       # number of ReadReq miss ticks (Tick)
system.cpu.icache.ReadReq.missLatency::total      6398500                       # number of ReadReq miss ticks (Tick)
system.cpu.icache.ReadReq.accesses::switch_cpus_1.inst     23975933                       # number of ReadReq accesses(hits+misses) (Count)
system.cpu.icache.ReadReq.accesses::total     23975933                       # number of ReadReq accesses(hits+misses) (Count)
system.cpu.icache.ReadReq.missRate::switch_cpus_1.inst     0.000003                       # miss rate for ReadReq accesses (Ratio)
system.cpu.icache.ReadReq.missRate::total     0.000003                       # miss rate for ReadReq accesses (Ratio)
system.cpu.icache.ReadReq.avgMissLatency::switch_cpus_1.inst 86466.216216                       # average ReadReq miss latency ((Tick/Count))
system.cpu.icache.ReadReq.avgMissLatency::total 86466.216216                       # average ReadReq miss latency ((Tick/Count))
system.cpu.icache.ReadReq.mshrHits::switch_cpus_1.inst           10                       # number of ReadReq MSHR hits (Count)
system.cpu.icache.ReadReq.mshrHits::total           10                       # number of ReadReq MSHR hits (Count)
system.cpu.icache.ReadReq.mshrMisses::switch_cpus_1.inst           64                       # number of ReadReq MSHR misses (Count)
system.cpu.icache.ReadReq.mshrMisses::total           64                       # number of ReadReq MSHR misses (Count)
system.cpu.icache.ReadReq.mshrMissLatency::switch_cpus_1.inst      5627000                       # number of ReadReq MSHR miss ticks (Tick)
system.cpu.icache.ReadReq.mshrMissLatency::total      5627000                       # number of ReadReq MSHR miss ticks (Tick)
system.cpu.icache.ReadReq.mshrMissRate::switch_cpus_1.inst     0.000003                       # mshr miss rate for ReadReq accesses (Ratio)
system.cpu.icache.ReadReq.mshrMissRate::total     0.000003                       # mshr miss rate for ReadReq accesses (Ratio)
system.cpu.icache.ReadReq.avgMshrMissLatency::switch_cpus_1.inst 87921.875000                       # average ReadReq mshr miss latency ((Tick/Count))
system.cpu.icache.ReadReq.avgMshrMissLatency::total 87921.875000                       # average ReadReq mshr miss latency ((Tick/Count))
system.cpu.icache.power_state.pwrStateResidencyTicks::UNDEFINED 1011575198500                       # Cumulative time (in ticks) in various power states (Tick)
system.cpu.icache.tags.tagsInUse                  256                       # Average ticks per tags in use ((Tick/Count))
system.cpu.icache.tags.totalRefs           1056954960                       # Total number of references to valid blocks. (Count)
system.cpu.icache.tags.sampledRefs                320                       # Sample count of references to valid blocks. (Count)
system.cpu.icache.tags.avgRefs           3302984.250000                       # Average number of references to valid blocks. ((Count/Count))
system.cpu.icache.tags.warmupTick                   0                       # The tick when the warmup percentage was hit. (Tick)
system.cpu.icache.tags.occupancies::cpu.inst   178.660544                       # Average occupied blocks per tick, per requestor ((Count/Tick))
system.cpu.icache.tags.occupancies::switch_cpus.inst    29.828770                       # Average occupied blocks per tick, per requestor ((Count/Tick))
system.cpu.icache.tags.occupancies::switch_cpus_1.inst    47.510686                       # Average occupied blocks per tick, per requestor ((Count/Tick))
system.cpu.icache.tags.avgOccs::cpu.inst     0.697893                       # Average percentage of cache occupancy ((Ratio/Tick))
system.cpu.icache.tags.avgOccs::switch_cpus.inst     0.116519                       # Average percentage of cache occupancy ((Ratio/Tick))
system.cpu.icache.tags.avgOccs::switch_cpus_1.inst     0.185589                       # Average percentage of cache occupancy ((Ratio/Tick))
system.cpu.icache.tags.avgOccs::total               1                       # Average percentage of cache occupancy ((Ratio/Tick))
system.cpu.icache.tags.occupanciesTaskId::1024          256                       # Occupied blocks per task id (Count)
system.cpu.icache.tags.ageTaskId_1024::4          256                       # Occupied blocks per task id, per block age (Count)
system.cpu.icache.tags.ratioOccsTaskId::1024            1                       # Ratio of occupied blocks and all blocks, per task id (Ratio)
system.cpu.icache.tags.tagAccesses           47951930                       # Number of tag accesses (Count)
system.cpu.icache.tags.dataAccesses          47951930                       # Number of data accesses (Count)
system.cpu.icache.tags.power_state.pwrStateResidencyTicks::UNDEFINED 1011575198500                       # Cumulative time (in ticks) in various power states (Tick)
system.cpu.mmu.dtb.instHits                         0                       # ITB inst hits (Count)
system.cpu.mmu.dtb.instMisses                       0                       # ITB inst misses (Count)
system.cpu.mmu.dtb.readHits                         0                       # DTB read hits (Count)
system.cpu.mmu.dtb.readMisses                       0                       # DTB read misses (Count)
system.cpu.mmu.dtb.writeHits                        0                       # DTB write hits (Count)
system.cpu.mmu.dtb.writeMisses                      0                       # DTB write misses (Count)
system.cpu.mmu.dtb.inserts                          0                       # Number of times an entry is inserted into the TLB (Count)
system.cpu.mmu.dtb.flushTlb                         0                       # Number of times complete TLB was flushed (Count)
system.cpu.mmu.dtb.flushTlbMva                      0                       # Number of times TLB was flushed by MVA (Count)
system.cpu.mmu.dtb.flushTlbMvaAsid                  0                       # Number of times TLB was flushed by MVA & ASID (Count)
system.cpu.mmu.dtb.flushTlbAsid                     0                       # Number of times TLB was flushed by ASID (Count)
system.cpu.mmu.dtb.flushedEntries                   0                       # Number of entries that have been flushed from TLB (Count)
system.cpu.mmu.dtb.alignFaults                      0                       # Number of TLB faults due to alignment restrictions (Count)
system.cpu.mmu.dtb.prefetchFaults                   0                       # Number of TLB faults due to prefetch (Count)
system.cpu.mmu.dtb.domainFaults                     0                       # Number of TLB faults due to domain restrictions (Count)
system.cpu.mmu.dtb.permsFaults                      0                       # Number of TLB faults due to permissions restrictions (Count)
system.cpu.mmu.dtb.readAccesses                     0                       # DTB read accesses (Count)
system.cpu.mmu.dtb.writeAccesses                    0                       # DTB write accesses (Count)
system.cpu.mmu.dtb.instAccesses                     0                       # ITB inst accesses (Count)
system.cpu.mmu.dtb.hits                             0                       # Total TLB (inst and data) hits (Count)
system.cpu.mmu.dtb.misses                           0                       # Total TLB (inst and data) misses (Count)
system.cpu.mmu.dtb.accesses                         0                       # Total TLB (inst and data) accesses (Count)
system.cpu.mmu.dtb_walker.walks                     0                       # Table walker walks requested (Count)
system.cpu.mmu.dtb_walker.requestOrigin_Requested::Data            0                       # Table walker requests started/completed, data/inst (Count)
system.cpu.mmu.dtb_walker.requestOrigin_Requested::Inst            0                       # Table walker requests started/completed, data/inst (Count)
system.cpu.mmu.dtb_walker.requestOrigin_Requested::total            0                       # Table walker requests started/completed, data/inst (Count)
system.cpu.mmu.dtb_walker.requestOrigin_Completed::Data            0                       # Table walker requests started/completed, data/inst (Count)
system.cpu.mmu.dtb_walker.requestOrigin_Completed::Inst            0                       # Table walker requests started/completed, data/inst (Count)
system.cpu.mmu.dtb_walker.requestOrigin_Completed::total            0                       # Table walker requests started/completed, data/inst (Count)
system.cpu.mmu.dtb_walker.requestOrigin::total            0                       # Table walker requests started/completed, data/inst (Count)
system.cpu.mmu.dtb_walker.power_state.pwrStateResidencyTicks::UNDEFINED 1011575198500                       # Cumulative time (in ticks) in various power states (Tick)
system.cpu.mmu.itb.instHits                         0                       # ITB inst hits (Count)
system.cpu.mmu.itb.instMisses                       0                       # ITB inst misses (Count)
system.cpu.mmu.itb.readHits                         0                       # DTB read hits (Count)
system.cpu.mmu.itb.readMisses                       0                       # DTB read misses (Count)
system.cpu.mmu.itb.writeHits                        0                       # DTB write hits (Count)
system.cpu.mmu.itb.writeMisses                      0                       # DTB write misses (Count)
system.cpu.mmu.itb.inserts                          0                       # Number of times an entry is inserted into the TLB (Count)
system.cpu.mmu.itb.flushTlb                         0                       # Number of times complete TLB was flushed (Count)
system.cpu.mmu.itb.flushTlbMva                      0                       # Number of times TLB was flushed by MVA (Count)
system.cpu.mmu.itb.flushTlbMvaAsid                  0                       # Number of times TLB was flushed by MVA & ASID (Count)
system.cpu.mmu.itb.flushTlbAsid                     0                       # Number of times TLB was flushed by ASID (Count)
system.cpu.mmu.itb.flushedEntries                   0                       # Number of entries that have been flushed from TLB (Count)
system.cpu.mmu.itb.alignFaults                      0                       # Number of TLB faults due to alignment restrictions (Count)
system.cpu.mmu.itb.prefetchFaults                   0                       # Number of TLB faults due to prefetch (Count)
system.cpu.mmu.itb.domainFaults                     0                       # Number of TLB faults due to domain restrictions (Count)
system.cpu.mmu.itb.permsFaults                      0                       # Number of TLB faults due to permissions restrictions (Count)
system.cpu.mmu.itb.readAccesses                     0                       # DTB read accesses (Count)
system.cpu.mmu.itb.writeAccesses                    0                       # DTB write accesses (Count)
system.cpu.mmu.itb.instAccesses                     0                       # ITB inst accesses (Count)
system.cpu.mmu.itb.hits                             0                       # Total TLB (inst and data) hits (Count)
system.cpu.mmu.itb.misses                           0                       # Total TLB (inst and data) misses (Count)
system.cpu.mmu.itb.accesses                         0                       # Total TLB (inst and data) accesses (Count)
system.cpu.mmu.itb_walker.walks                     0                       # Table walker walks requested (Count)
system.cpu.mmu.itb_walker.requestOrigin_Requested::Data            0                       # Table walker requests started/completed, data/inst (Count)
system.cpu.mmu.itb_walker.requestOrigin_Requested::Inst            0                       # Table walker requests started/completed, data/inst (Count)
system.cpu.mmu.itb_walker.requestOrigin_Requested::total            0                       # Table walker requests started/completed, data/inst (Count)
system.cpu.mmu.itb_walker.requestOrigin_Completed::Data            0                       # Table walker requests started/completed, data/inst (Count)
system.cpu.mmu.itb_walker.requestOrigin_Completed::Inst            0                       # Table walker requests started/completed, data/inst (Count)
system.cpu.mmu.itb_walker.requestOrigin_Completed::total            0                       # Table walker requests started/completed, data/inst (Count)
system.cpu.mmu.itb_walker.requestOrigin::total            0                       # Table walker requests started/completed, data/inst (Count)
system.cpu.mmu.itb_walker.power_state.pwrStateResidencyTicks::UNDEFINED 1011575198500                       # Cumulative time (in ticks) in various power states (Tick)
system.cpu.mmu.stage2_dtb.instHits                  0                       # ITB inst hits (Count)
system.cpu.mmu.stage2_dtb.instMisses                0                       # ITB inst misses (Count)
system.cpu.mmu.stage2_dtb.readHits                  0                       # DTB read hits (Count)
system.cpu.mmu.stage2_dtb.readMisses                0                       # DTB read misses (Count)
system.cpu.mmu.stage2_dtb.writeHits                 0                       # DTB write hits (Count)
system.cpu.mmu.stage2_dtb.writeMisses               0                       # DTB write misses (Count)
system.cpu.mmu.stage2_dtb.inserts                   0                       # Number of times an entry is inserted into the TLB (Count)
system.cpu.mmu.stage2_dtb.flushTlb                  0                       # Number of times complete TLB was flushed (Count)
system.cpu.mmu.stage2_dtb.flushTlbMva               0                       # Number of times TLB was flushed by MVA (Count)
system.cpu.mmu.stage2_dtb.flushTlbMvaAsid            0                       # Number of times TLB was flushed by MVA & ASID (Count)
system.cpu.mmu.stage2_dtb.flushTlbAsid              0                       # Number of times TLB was flushed by ASID (Count)
system.cpu.mmu.stage2_dtb.flushedEntries            0                       # Number of entries that have been flushed from TLB (Count)
system.cpu.mmu.stage2_dtb.alignFaults               0                       # Number of TLB faults due to alignment restrictions (Count)
system.cpu.mmu.stage2_dtb.prefetchFaults            0                       # Number of TLB faults due to prefetch (Count)
system.cpu.mmu.stage2_dtb.domainFaults              0                       # Number of TLB faults due to domain restrictions (Count)
system.cpu.mmu.stage2_dtb.permsFaults               0                       # Number of TLB faults due to permissions restrictions (Count)
system.cpu.mmu.stage2_dtb.readAccesses              0                       # DTB read accesses (Count)
system.cpu.mmu.stage2_dtb.writeAccesses             0                       # DTB write accesses (Count)
system.cpu.mmu.stage2_dtb.instAccesses              0                       # ITB inst accesses (Count)
system.cpu.mmu.stage2_dtb.hits                      0                       # Total TLB (inst and data) hits (Count)
system.cpu.mmu.stage2_dtb.misses                    0                       # Total TLB (inst and data) misses (Count)
system.cpu.mmu.stage2_dtb.accesses                  0                       # Total TLB (inst and data) accesses (Count)
system.cpu.mmu.stage2_dtb_walker.walks              0                       # Table walker walks requested (Count)
system.cpu.mmu.stage2_dtb_walker.requestOrigin_Requested::Data            0                       # Table walker requests started/completed, data/inst (Count)
system.cpu.mmu.stage2_dtb_walker.requestOrigin_Requested::Inst            0                       # Table walker requests started/completed, data/inst (Count)
system.cpu.mmu.stage2_dtb_walker.requestOrigin_Requested::total            0                       # Table walker requests started/completed, data/inst (Count)
system.cpu.mmu.stage2_dtb_walker.requestOrigin_Completed::Data            0                       # Table walker requests started/completed, data/inst (Count)
system.cpu.mmu.stage2_dtb_walker.requestOrigin_Completed::Inst            0                       # Table walker requests started/completed, data/inst (Count)
system.cpu.mmu.stage2_dtb_walker.requestOrigin_Completed::total            0                       # Table walker requests started/completed, data/inst (Count)
system.cpu.mmu.stage2_dtb_walker.requestOrigin::total            0                       # Table walker requests started/completed, data/inst (Count)
system.cpu.mmu.stage2_dtb_walker.power_state.pwrStateResidencyTicks::UNDEFINED 1011575198500                       # Cumulative time (in ticks) in various power states (Tick)
system.cpu.mmu.stage2_itb.instHits                  0                       # ITB inst hits (Count)
system.cpu.mmu.stage2_itb.instMisses                0                       # ITB inst misses (Count)
system.cpu.mmu.stage2_itb.readHits                  0                       # DTB read hits (Count)
system.cpu.mmu.stage2_itb.readMisses                0                       # DTB read misses (Count)
system.cpu.mmu.stage2_itb.writeHits                 0                       # DTB write hits (Count)
system.cpu.mmu.stage2_itb.writeMisses               0                       # DTB write misses (Count)
system.cpu.mmu.stage2_itb.inserts                   0                       # Number of times an entry is inserted into the TLB (Count)
system.cpu.mmu.stage2_itb.flushTlb                  0                       # Number of times complete TLB was flushed (Count)
system.cpu.mmu.stage2_itb.flushTlbMva               0                       # Number of times TLB was flushed by MVA (Count)
system.cpu.mmu.stage2_itb.flushTlbMvaAsid            0                       # Number of times TLB was flushed by MVA & ASID (Count)
system.cpu.mmu.stage2_itb.flushTlbAsid              0                       # Number of times TLB was flushed by ASID (Count)
system.cpu.mmu.stage2_itb.flushedEntries            0                       # Number of entries that have been flushed from TLB (Count)
system.cpu.mmu.stage2_itb.alignFaults               0                       # Number of TLB faults due to alignment restrictions (Count)
system.cpu.mmu.stage2_itb.prefetchFaults            0                       # Number of TLB faults due to prefetch (Count)
system.cpu.mmu.stage2_itb.domainFaults              0                       # Number of TLB faults due to domain restrictions (Count)
system.cpu.mmu.stage2_itb.permsFaults               0                       # Number of TLB faults due to permissions restrictions (Count)
system.cpu.mmu.stage2_itb.readAccesses              0                       # DTB read accesses (Count)
system.cpu.mmu.stage2_itb.writeAccesses             0                       # DTB write accesses (Count)
system.cpu.mmu.stage2_itb.instAccesses              0                       # ITB inst accesses (Count)
system.cpu.mmu.stage2_itb.hits                      0                       # Total TLB (inst and data) hits (Count)
system.cpu.mmu.stage2_itb.misses                    0                       # Total TLB (inst and data) misses (Count)
system.cpu.mmu.stage2_itb.accesses                  0                       # Total TLB (inst and data) accesses (Count)
system.cpu.mmu.stage2_itb_walker.walks              0                       # Table walker walks requested (Count)
system.cpu.mmu.stage2_itb_walker.requestOrigin_Requested::Data            0                       # Table walker requests started/completed, data/inst (Count)
system.cpu.mmu.stage2_itb_walker.requestOrigin_Requested::Inst            0                       # Table walker requests started/completed, data/inst (Count)
system.cpu.mmu.stage2_itb_walker.requestOrigin_Requested::total            0                       # Table walker requests started/completed, data/inst (Count)
system.cpu.mmu.stage2_itb_walker.requestOrigin_Completed::Data            0                       # Table walker requests started/completed, data/inst (Count)
system.cpu.mmu.stage2_itb_walker.requestOrigin_Completed::Inst            0                       # Table walker requests started/completed, data/inst (Count)
system.cpu.mmu.stage2_itb_walker.requestOrigin_Completed::total            0                       # Table walker requests started/completed, data/inst (Count)
system.cpu.mmu.stage2_itb_walker.requestOrigin::total            0                       # Table walker requests started/completed, data/inst (Count)
system.cpu.mmu.stage2_itb_walker.power_state.pwrStateResidencyTicks::UNDEFINED 1011575198500                       # Cumulative time (in ticks) in various power states (Tick)
system.cpu.power_state.pwrStateResidencyTicks::OFF 476561035500                       # Cumulative time (in ticks) in various power states (Tick)
system.cpu.thread_0.numInsts                        0                       # Number of Instructions committed (Count)
system.cpu.thread_0.numOps                          0                       # Number of Ops committed (Count)
system.cpu.thread_0.numMemRefs                      0                       # Number of Memory References (Count)
system.cpu.workload.numSyscalls                     5                       # Number of system calls (Count)
system.cpu_clk_domain.clock                       500                       # Clock period in ticks (Tick)
system.cpu_voltage_domain.voltage                   1                       # Voltage in Volts (Volt)
system.l2.demandHits::switch_cpus_1.data     23692999                       # number of demand (read+write) hits (Count)
system.l2.demandHits::total                  23692999                       # number of demand (read+write) hits (Count)
system.l2.overallHits::switch_cpus_1.data     23692999                       # number of overall hits (Count)
system.l2.overallHits::total                 23692999                       # number of overall hits (Count)
system.l2.demandMisses::switch_cpus_1.inst           64                       # number of demand (read+write) misses (Count)
system.l2.demandMisses::switch_cpus_1.data      7632368                       # number of demand (read+write) misses (Count)
system.l2.demandMisses::total                 7632432                       # number of demand (read+write) misses (Count)
system.l2.overallMisses::switch_cpus_1.inst           64                       # number of overall misses (Count)
system.l2.overallMisses::switch_cpus_1.data      7632368                       # number of overall misses (Count)
system.l2.overallMisses::total                7632432                       # number of overall misses (Count)
system.l2.demandMissLatency::switch_cpus_1.inst      5529500                       # number of demand (read+write) miss ticks (Tick)
system.l2.demandMissLatency::switch_cpus_1.data 630837636000                       # number of demand (read+write) miss ticks (Tick)
system.l2.demandMissLatency::total       630843165500                       # number of demand (read+write) miss ticks (Tick)
system.l2.overallMissLatency::switch_cpus_1.inst      5529500                       # number of overall miss ticks (Tick)
system.l2.overallMissLatency::switch_cpus_1.data 630837636000                       # number of overall miss ticks (Tick)
system.l2.overallMissLatency::total      630843165500                       # number of overall miss ticks (Tick)
system.l2.demandAccesses::switch_cpus_1.inst           64                       # number of demand (read+write) accesses (Count)
system.l2.demandAccesses::switch_cpus_1.data     31325367                       # number of demand (read+write) accesses (Count)
system.l2.demandAccesses::total              31325431                       # number of demand (read+write) accesses (Count)
system.l2.overallAccesses::switch_cpus_1.inst           64                       # number of overall (read+write) accesses (Count)
system.l2.overallAccesses::switch_cpus_1.data     31325367                       # number of overall (read+write) accesses (Count)
system.l2.overallAccesses::total             31325431                       # number of overall (read+write) accesses (Count)
system.l2.demandMissRate::switch_cpus_1.inst            1                       # miss rate for demand accesses (Ratio)
system.l2.demandMissRate::switch_cpus_1.data     0.243648                       # miss rate for demand accesses (Ratio)
system.l2.demandMissRate::total              0.243650                       # miss rate for demand accesses (Ratio)
system.l2.overallMissRate::switch_cpus_1.inst            1                       # miss rate for overall accesses (Ratio)
system.l2.overallMissRate::switch_cpus_1.data     0.243648                       # miss rate for overall accesses (Ratio)
system.l2.overallMissRate::total             0.243650                       # miss rate for overall accesses (Ratio)
system.l2.demandAvgMissLatency::switch_cpus_1.inst 86398.437500                       # average overall miss latency ((Cycle/Count))
system.l2.demandAvgMissLatency::switch_cpus_1.data 82652.937594                       # average overall miss latency ((Cycle/Count))
system.l2.demandAvgMissLatency::total    82652.969001                       # average overall miss latency ((Cycle/Count))
system.l2.overallAvgMissLatency::switch_cpus_1.inst 86398.437500                       # average overall miss latency ((Cycle/Count))
system.l2.overallAvgMissLatency::switch_cpus_1.data 82652.937594                       # average overall miss latency ((Cycle/Count))
system.l2.overallAvgMissLatency::total   82652.969001                       # average overall miss latency ((Cycle/Count))
system.l2.blockedCycles::no_mshrs                   0                       # number of cycles access was blocked (Cycle)
system.l2.blockedCycles::no_targets                 0                       # number of cycles access was blocked (Cycle)
system.l2.blockedCauses::no_mshrs                   0                       # number of times access was blocked (Count)
system.l2.blockedCauses::no_targets                 0                       # number of times access was blocked (Count)
system.l2.avgBlocked::no_mshrs                    nan                       # average number of cycles each access was blocked ((Cycle/Count))
system.l2.avgBlocked::no_targets                  nan                       # average number of cycles each access was blocked ((Cycle/Count))
system.l2.writebacks::writebacks               537435                       # number of writebacks (Count)
system.l2.writebacks::total                    537435                       # number of writebacks (Count)
system.l2.demandMshrMisses::switch_cpus_1.inst           64                       # number of demand (read+write) MSHR misses (Count)
system.l2.demandMshrMisses::switch_cpus_1.data      7632368                       # number of demand (read+write) MSHR misses (Count)
system.l2.demandMshrMisses::total             7632432                       # number of demand (read+write) MSHR misses (Count)
system.l2.overallMshrMisses::switch_cpus_1.inst           64                       # number of overall MSHR misses (Count)
system.l2.overallMshrMisses::switch_cpus_1.data      7632368                       # number of overall MSHR misses (Count)
system.l2.overallMshrMisses::total            7632432                       # number of overall MSHR misses (Count)
system.l2.demandMshrMissLatency::switch_cpus_1.inst      4889500                       # number of demand (read+write) MSHR miss ticks (Tick)
system.l2.demandMshrMissLatency::switch_cpus_1.data 554513956000                       # number of demand (read+write) MSHR miss ticks (Tick)
system.l2.demandMshrMissLatency::total   554518845500                       # number of demand (read+write) MSHR miss ticks (Tick)
system.l2.overallMshrMissLatency::switch_cpus_1.inst      4889500                       # number of overall MSHR miss ticks (Tick)
system.l2.overallMshrMissLatency::switch_cpus_1.data 554513956000                       # number of overall MSHR miss ticks (Tick)
system.l2.overallMshrMissLatency::total  554518845500                       # number of overall MSHR miss ticks (Tick)
system.l2.demandMshrMissRate::switch_cpus_1.inst            1                       # mshr miss ratio for demand accesses (Ratio)
system.l2.demandMshrMissRate::switch_cpus_1.data     0.243648                       # mshr miss ratio for demand accesses (Ratio)
system.l2.demandMshrMissRate::total          0.243650                       # mshr miss ratio for demand accesses (Ratio)
system.l2.overallMshrMissRate::switch_cpus_1.inst            1                       # mshr miss ratio for overall accesses (Ratio)
system.l2.overallMshrMissRate::switch_cpus_1.data     0.243648                       # mshr miss ratio for overall accesses (Ratio)
system.l2.overallMshrMissRate::total         0.243650                       # mshr miss ratio for overall accesses (Ratio)
system.l2.demandAvgMshrMissLatency::switch_cpus_1.inst 76398.437500                       # average overall mshr miss latency ((Cycle/Count))
system.l2.demandAvgMshrMissLatency::switch_cpus_1.data 72652.937594                       # average overall mshr miss latency ((Cycle/Count))
system.l2.demandAvgMshrMissLatency::total 72652.969001                       # average overall mshr miss latency ((Cycle/Count))
system.l2.overallAvgMshrMissLatency::switch_cpus_1.inst 76398.437500                       # average overall mshr miss latency ((Cycle/Count))
system.l2.overallAvgMshrMissLatency::switch_cpus_1.data 72652.937594                       # average overall mshr miss latency ((Cycle/Count))
system.l2.overallAvgMshrMissLatency::total 72652.969001                       # average overall mshr miss latency ((Cycle/Count))
system.l2.replacements                        7659508                       # number of replacements (Count)
system.l2.CleanEvict.mshrMisses::writebacks       353581                       # number of CleanEvict MSHR misses (Count)
system.l2.CleanEvict.mshrMisses::total         353581                       # number of CleanEvict MSHR misses (Count)
system.l2.CleanEvict.mshrMissRate::writebacks          inf                       # mshr miss rate for CleanEvict accesses (Ratio)
system.l2.CleanEvict.mshrMissRate::total          inf                       # mshr miss rate for CleanEvict accesses (Ratio)
system.l2.ReadCleanReq.misses::switch_cpus_1.inst           64                       # number of ReadCleanReq misses (Count)
system.l2.ReadCleanReq.misses::total               64                       # number of ReadCleanReq misses (Count)
system.l2.ReadCleanReq.missLatency::switch_cpus_1.inst      5529500                       # number of ReadCleanReq miss ticks (Tick)
system.l2.ReadCleanReq.missLatency::total      5529500                       # number of ReadCleanReq miss ticks (Tick)
system.l2.ReadCleanReq.accesses::switch_cpus_1.inst           64                       # number of ReadCleanReq accesses(hits+misses) (Count)
system.l2.ReadCleanReq.accesses::total             64                       # number of ReadCleanReq accesses(hits+misses) (Count)
system.l2.ReadCleanReq.missRate::switch_cpus_1.inst            1                       # miss rate for ReadCleanReq accesses (Ratio)
system.l2.ReadCleanReq.missRate::total              1                       # miss rate for ReadCleanReq accesses (Ratio)
system.l2.ReadCleanReq.avgMissLatency::switch_cpus_1.inst 86398.437500                       # average ReadCleanReq miss latency ((Tick/Count))
system.l2.ReadCleanReq.avgMissLatency::total 86398.437500                       # average ReadCleanReq miss latency ((Tick/Count))
system.l2.ReadCleanReq.mshrMisses::switch_cpus_1.inst           64                       # number of ReadCleanReq MSHR misses (Count)
system.l2.ReadCleanReq.mshrMisses::total           64                       # number of ReadCleanReq MSHR misses (Count)
system.l2.ReadCleanReq.mshrMissLatency::switch_cpus_1.inst      4889500                       # number of ReadCleanReq MSHR miss ticks (Tick)
system.l2.ReadCleanReq.mshrMissLatency::total      4889500                       # number of ReadCleanReq MSHR miss ticks (Tick)
system.l2.ReadCleanReq.mshrMissRate::switch_cpus_1.inst            1                       # mshr miss rate for ReadCleanReq accesses (Ratio)
system.l2.ReadCleanReq.mshrMissRate::total            1                       # mshr miss rate for ReadCleanReq accesses (Ratio)
system.l2.ReadCleanReq.avgMshrMissLatency::switch_cpus_1.inst 76398.437500                       # average ReadCleanReq mshr miss latency ((Tick/Count))
system.l2.ReadCleanReq.avgMshrMissLatency::total 76398.437500                       # average ReadCleanReq mshr miss latency ((Tick/Count))
system.l2.ReadExReq.hits::switch_cpus_1.data       601862                       # number of ReadExReq hits (Count)
system.l2.ReadExReq.hits::total                601862                       # number of ReadExReq hits (Count)
system.l2.ReadExReq.misses::switch_cpus_1.data       535814                       # number of ReadExReq misses (Count)
system.l2.ReadExReq.misses::total              535814                       # number of ReadExReq misses (Count)
system.l2.ReadExReq.missLatency::switch_cpus_1.data  50672599500                       # number of ReadExReq miss ticks (Tick)
system.l2.ReadExReq.missLatency::total    50672599500                       # number of ReadExReq miss ticks (Tick)
system.l2.ReadExReq.accesses::switch_cpus_1.data      1137676                       # number of ReadExReq accesses(hits+misses) (Count)
system.l2.ReadExReq.accesses::total           1137676                       # number of ReadExReq accesses(hits+misses) (Count)
system.l2.ReadExReq.missRate::switch_cpus_1.data     0.470972                       # miss rate for ReadExReq accesses (Ratio)
system.l2.ReadExReq.missRate::total          0.470972                       # miss rate for ReadExReq accesses (Ratio)
system.l2.ReadExReq.avgMissLatency::switch_cpus_1.data 94571.249538                       # average ReadExReq miss latency ((Tick/Count))
system.l2.ReadExReq.avgMissLatency::total 94571.249538                       # average ReadExReq miss latency ((Tick/Count))
system.l2.ReadExReq.mshrMisses::switch_cpus_1.data       535814                       # number of ReadExReq MSHR misses (Count)
system.l2.ReadExReq.mshrMisses::total          535814                       # number of ReadExReq MSHR misses (Count)
system.l2.ReadExReq.mshrMissLatency::switch_cpus_1.data  45314459500                       # number of ReadExReq MSHR miss ticks (Tick)
system.l2.ReadExReq.mshrMissLatency::total  45314459500                       # number of ReadExReq MSHR miss ticks (Tick)
system.l2.ReadExReq.mshrMissRate::switch_cpus_1.data     0.470972                       # mshr miss rate for ReadExReq accesses (Ratio)
system.l2.ReadExReq.mshrMissRate::total      0.470972                       # mshr miss rate for ReadExReq accesses (Ratio)
system.l2.ReadExReq.avgMshrMissLatency::switch_cpus_1.data 84571.249538                       # average ReadExReq mshr miss latency ((Tick/Count))
system.l2.ReadExReq.avgMshrMissLatency::total 84571.249538                       # average ReadExReq mshr miss latency ((Tick/Count))
system.l2.ReadSharedReq.hits::switch_cpus_1.data     23091137                       # number of ReadSharedReq hits (Count)
system.l2.ReadSharedReq.hits::total          23091137                       # number of ReadSharedReq hits (Count)
system.l2.ReadSharedReq.misses::switch_cpus_1.data      7096554                       # number of ReadSharedReq misses (Count)
system.l2.ReadSharedReq.misses::total         7096554                       # number of ReadSharedReq misses (Count)
system.l2.ReadSharedReq.missLatency::switch_cpus_1.data 580165036500                       # number of ReadSharedReq miss ticks (Tick)
system.l2.ReadSharedReq.missLatency::total 580165036500                       # number of ReadSharedReq miss ticks (Tick)
system.l2.ReadSharedReq.accesses::switch_cpus_1.data     30187691                       # number of ReadSharedReq accesses(hits+misses) (Count)
system.l2.ReadSharedReq.accesses::total      30187691                       # number of ReadSharedReq accesses(hits+misses) (Count)
system.l2.ReadSharedReq.missRate::switch_cpus_1.data     0.235081                       # miss rate for ReadSharedReq accesses (Ratio)
system.l2.ReadSharedReq.missRate::total      0.235081                       # miss rate for ReadSharedReq accesses (Ratio)
system.l2.ReadSharedReq.avgMissLatency::switch_cpus_1.data 81753.064445                       # average ReadSharedReq miss latency ((Tick/Count))
system.l2.ReadSharedReq.avgMissLatency::total 81753.064445                       # average ReadSharedReq miss latency ((Tick/Count))
system.l2.ReadSharedReq.mshrMisses::switch_cpus_1.data      7096554                       # number of ReadSharedReq MSHR misses (Count)
system.l2.ReadSharedReq.mshrMisses::total      7096554                       # number of ReadSharedReq MSHR misses (Count)
system.l2.ReadSharedReq.mshrMissLatency::switch_cpus_1.data 509199496500                       # number of ReadSharedReq MSHR miss ticks (Tick)
system.l2.ReadSharedReq.mshrMissLatency::total 509199496500                       # number of ReadSharedReq MSHR miss ticks (Tick)
system.l2.ReadSharedReq.mshrMissRate::switch_cpus_1.data     0.235081                       # mshr miss rate for ReadSharedReq accesses (Ratio)
system.l2.ReadSharedReq.mshrMissRate::total     0.235081                       # mshr miss rate for ReadSharedReq accesses (Ratio)
system.l2.ReadSharedReq.avgMshrMissLatency::switch_cpus_1.data 71753.064445                       # average ReadSharedReq mshr miss latency ((Tick/Count))
system.l2.ReadSharedReq.avgMshrMissLatency::total 71753.064445                       # average ReadSharedReq mshr miss latency ((Tick/Count))
system.l2.WritebackClean.hits::writebacks           64                       # number of WritebackClean hits (Count)
system.l2.WritebackClean.hits::total               64                       # number of WritebackClean hits (Count)
system.l2.WritebackClean.accesses::writebacks           64                       # number of WritebackClean accesses(hits+misses) (Count)
system.l2.WritebackClean.accesses::total           64                       # number of WritebackClean accesses(hits+misses) (Count)
system.l2.WritebackDirty.hits::writebacks      1184913                       # number of WritebackDirty hits (Count)
system.l2.WritebackDirty.hits::total          1184913                       # number of WritebackDirty hits (Count)
system.l2.WritebackDirty.accesses::writebacks      1184913                       # number of WritebackDirty accesses(hits+misses) (Count)
system.l2.WritebackDirty.accesses::total      1184913                       # number of WritebackDirty accesses(hits+misses) (Count)
system.l2.power_state.pwrStateResidencyTicks::UNDEFINED 1011575198500                       # Cumulative time (in ticks) in various power states (Tick)
system.l2.tags.tagsInUse                        16384                       # Average ticks per tags in use ((Tick/Count))
system.l2.tags.totalRefs                     62550949                       # Total number of references to valid blocks. (Count)
system.l2.tags.sampledRefs                    7675892                       # Sample count of references to valid blocks. (Count)
system.l2.tags.avgRefs                       8.149014                       # Average number of references to valid blocks. ((Count/Count))
system.l2.tags.warmupTick                           0                       # The tick when the warmup percentage was hit. (Tick)
system.l2.tags.occupancies::writebacks       8.511690                       # Average occupied blocks per tick, per requestor ((Count/Tick))
system.l2.tags.occupancies::cpu.data         0.277560                       # Average occupied blocks per tick, per requestor ((Count/Tick))
system.l2.tags.occupancies::switch_cpus.data    24.963583                       # Average occupied blocks per tick, per requestor ((Count/Tick))
system.l2.tags.occupancies::switch_cpus_1.inst     0.004141                       # Average occupied blocks per tick, per requestor ((Count/Tick))
system.l2.tags.occupancies::switch_cpus_1.data 16350.243025                       # Average occupied blocks per tick, per requestor ((Count/Tick))
system.l2.tags.avgOccs::writebacks           0.000520                       # Average percentage of cache occupancy ((Ratio/Tick))
system.l2.tags.avgOccs::cpu.data             0.000017                       # Average percentage of cache occupancy ((Ratio/Tick))
system.l2.tags.avgOccs::switch_cpus.data     0.001524                       # Average percentage of cache occupancy ((Ratio/Tick))
system.l2.tags.avgOccs::switch_cpus_1.inst     0.000000                       # Average percentage of cache occupancy ((Ratio/Tick))
system.l2.tags.avgOccs::switch_cpus_1.data     0.997940                       # Average percentage of cache occupancy ((Ratio/Tick))
system.l2.tags.avgOccs::total                       1                       # Average percentage of cache occupancy ((Ratio/Tick))
system.l2.tags.occupanciesTaskId::1024          16384                       # Occupied blocks per task id (Count)
system.l2.tags.ageTaskId_1024::0                  307                       # Occupied blocks per task id, per block age (Count)
system.l2.tags.ageTaskId_1024::1                 2662                       # Occupied blocks per task id, per block age (Count)
system.l2.tags.ageTaskId_1024::2                13412                       # Occupied blocks per task id, per block age (Count)
system.l2.tags.ageTaskId_1024::4                    3                       # Occupied blocks per task id, per block age (Count)
system.l2.tags.ratioOccsTaskId::1024                1                       # Ratio of occupied blocks and all blocks, per task id (Ratio)
system.l2.tags.tagAccesses                 1010073252                       # Number of tag accesses (Count)
system.l2.tags.dataAccesses                1010073252                       # Number of data accesses (Count)
system.l2.tags.power_state.pwrStateResidencyTicks::UNDEFINED 1011575198500                       # Cumulative time (in ticks) in various power states (Tick)
system.mem_ctrls.avgPriority_writebacks::samples    537429.00                       # Average QoS priority value for accepted requests (Count)
system.mem_ctrls.avgPriority_switch_cpus_1.inst::samples        64.00                       # Average QoS priority value for accepted requests (Count)
system.mem_ctrls.avgPriority_switch_cpus_1.data::samples   7630996.00                       # Average QoS priority value for accepted requests (Count)
system.mem_ctrls.priorityMinLatency      0.000000018750                       # per QoS priority minimum request to response latency (Second)
system.mem_ctrls.priorityMaxLatency      0.000376564500                       # per QoS priority maximum request to response latency (Second)
system.mem_ctrls.numReadWriteTurnArounds        32808                       # Number of turnarounds from READ to WRITE (Count)
system.mem_ctrls.numWriteReadTurnArounds        32808                       # Number of turnarounds from WRITE to READ (Count)
system.mem_ctrls.numStayReadState            15418389                       # Number of times bus staying in READ state (Count)
[...]
system.switch_cpus_1.mmu.itb.alignFaults            0                       # Number of TLB faults due to alignment restrictions (Count)
system.switch_cpus_1.mmu.itb.prefetchFaults            0                       # Number of TLB faults due to prefetch (Count)
system.switch_cpus_1.mmu.itb.domainFaults            0                       # Number of TLB faults due to domain restrictions (Count)
system.switch_cpus_1.mmu.itb.permsFaults            0                       # Number of TLB faults due to permissions restrictions (Count)
system.switch_cpus_1.mmu.itb.readAccesses            0                       # DTB read accesses (Count)
system.switch_cpus_1.mmu.itb.writeAccesses            0                       # DTB write accesses (Count)
system.switch_cpus_1.mmu.itb.instAccesses            0                       # ITB inst accesses (Count)
system.switch_cpus_1.mmu.itb.hits                   0                       # Total TLB (inst and data) hits (Count)
system.switch_cpus_1.mmu.itb.misses                 0                       # Total TLB (inst and data) misses (Count)
system.switch_cpus_1.mmu.itb.accesses               0                       # Total TLB (inst and data) accesses (Count)
system.switch_cpus_1.mmu.itb_walker.walks            0                       # Table walker walks requested (Count)
system.switch_cpus_1.mmu.itb_walker.requestOrigin_Requested::Data            0                       # Table walker requests started/completed, data/inst (Count)
system.switch_cpus_1.mmu.itb_walker.requestOrigin_Requested::Inst            0                       # Table walker requests started/completed, data/inst (Count)
system.switch_cpus_1.mmu.itb_walker.requestOrigin_Requested::total            0                       # Table walker requests started/completed, data/inst (Count)
system.switch_cpus_1.mmu.itb_walker.requestOrigin_Completed::Data            0                       # Table walker requests started/completed, data/inst (Count)
system.switch_cpus_1.mmu.itb_walker.requestOrigin_Completed::Inst            0                       # Table walker requests started/completed, data/inst (Count)
system.switch_cpus_1.mmu.itb_walker.requestOrigin_Completed::total            0                       # Table walker requests started/completed, data/inst (Count)
system.switch_cpus_1.mmu.itb_walker.requestOrigin::total            0                       # Table walker requests started/completed, data/inst (Count)
system.switch_cpus_1.mmu.itb_walker.power_state.pwrStateResidencyTicks::UNDEFINED 1011575198500                       # Cumulative time (in ticks) in various power states (Tick)
system.switch_cpus_1.mmu.stage2_dtb.instHits            0                       # ITB inst hits (Count)
system.switch_cpus_1.mmu.stage2_dtb.instMisses            0                       # ITB inst misses (Count)
system.switch_cpus_1.mmu.stage2_dtb.readHits            0                       # DTB read hits (Count)
system.switch_cpus_1.mmu.stage2_dtb.readMisses            0                       # DTB read misses (Count)
system.switch_cpus_1.mmu.stage2_dtb.writeHits            0                       # DTB write hits (Count)
system.switch_cpus_1.mmu.stage2_dtb.writeMisses            0                       # DTB write misses (Count)
system.switch_cpus_1.mmu.stage2_dtb.inserts            0                       # Number of times an entry is inserted into the TLB (Count)
system.switch_cpus_1.mmu.stage2_dtb.flushTlb            0                       # Number of times complete TLB was flushed (Count)
system.switch_cpus_1.mmu.stage2_dtb.flushTlbMva            0                       # Number of times TLB was flushed by MVA (Count)
system.switch_cpus_1.mmu.stage2_dtb.flushTlbMvaAsid            0                       # Number of times TLB was flushed by MVA & ASID (Count)
system.switch_cpus_1.mmu.stage2_dtb.flushTlbAsid            0                       # Number of times TLB was flushed by ASID (Count)
system.switch_cpus_1.mmu.stage2_dtb.flushedEntries            0                       # Number of entries that have been flushed from TLB (Count)
system.switch_cpus_1.mmu.stage2_dtb.alignFaults            0                       # Number of TLB faults due to alignment restrictions (Count)
system.switch_cpus_1.mmu.stage2_dtb.prefetchFaults            0                       # Number of TLB faults due to prefetch (Count)
system.switch_cpus_1.mmu.stage2_dtb.domainFaults            0                       # Number of TLB faults due to domain restrictions (Count)
system.switch_cpus_1.mmu.stage2_dtb.permsFaults            0                       # Number of TLB faults due to permissions restrictions (Count)
system.switch_cpus_1.mmu.stage2_dtb.readAccesses            0                       # DTB read accesses (Count)
system.switch_cpus_1.mmu.stage2_dtb.writeAccesses            0                       # DTB write accesses (Count)
system.switch_cpus_1.mmu.stage2_dtb.instAccesses            0                       # ITB inst accesses (Count)
system.switch_cpus_1.mmu.stage2_dtb.hits            0                       # Total TLB (inst and data) hits (Count)
system.switch_cpus_1.mmu.stage2_dtb.misses            0                       # Total TLB (inst and data) misses (Count)
system.switch_cpus_1.mmu.stage2_dtb.accesses            0                       # Total TLB (inst and data) accesses (Count)
system.switch_cpus_1.mmu.stage2_dtb_walker.walks            0                       # Table walker walks requested (Count)
system.switch_cpus_1.mmu.stage2_dtb_walker.requestOrigin_Requested::Data            0                       # Table walker requests started/completed, data/inst (Count)
system.switch_cpus_1.mmu.stage2_dtb_walker.requestOrigin_Requested::Inst            0                       # Table walker requests started/completed, data/inst (Count)
system.switch_cpus_1.mmu.stage2_dtb_walker.requestOrigin_Requested::total            0                       # Table walker requests started/completed, data/inst (Count)
system.switch_cpus_1.mmu.stage2_dtb_walker.requestOrigin_Completed::Data            0                       # Table walker requests started/completed, data/inst (Count)
system.switch_cpus_1.mmu.stage2_dtb_walker.requestOrigin_Completed::Inst            0                       # Table walker requests started/completed, data/inst (Count)
system.switch_cpus_1.mmu.stage2_dtb_walker.requestOrigin_Completed::total            0                       # Table walker requests started/completed, data/inst (Count)
system.switch_cpus_1.mmu.stage2_dtb_walker.requestOrigin::total            0                       # Table walker requests started/completed, data/inst (Count)
system.switch_cpus_1.mmu.stage2_dtb_walker.power_state.pwrStateResidencyTicks::UNDEFINED 1011575198500                       # Cumulative time (in ticks) in various power states (Tick)
system.switch_cpus_1.mmu.stage2_itb.instHits            0                       # ITB inst hits (Count)
system.switch_cpus_1.mmu.stage2_itb.instMisses            0                       # ITB inst misses (Count)
system.switch_cpus_1.mmu.stage2_itb.readHits            0                       # DTB read hits (Count)
system.switch_cpus_1.mmu.stage2_itb.readMisses            0                       # DTB read misses (Count)
system.switch_cpus_1.mmu.stage2_itb.writeHits            0                       # DTB write hits (Count)
system.switch_cpus_1.mmu.stage2_itb.writeMisses            0                       # DTB write misses (Count)
system.switch_cpus_1.mmu.stage2_itb.inserts            0                       # Number of times an entry is inserted into the TLB (Count)
system.switch_cpus_1.mmu.stage2_itb.flushTlb            0                       # Number of times complete TLB was flushed (Count)
system.switch_cpus_1.mmu.stage2_itb.flushTlbMva            0                       # Number of times TLB was flushed by MVA (Count)
system.switch_cpus_1.mmu.stage2_itb.flushTlbMvaAsid            0                       # Number of times TLB was flushed by MVA & ASID (Count)
system.switch_cpus_1.mmu.stage2_itb.flushTlbAsid            0                       # Number of times TLB was flushed by ASID (Count)
system.switch_cpus_1.mmu.stage2_itb.flushedEntries            0                       # Number of entries that have been flushed from TLB (Count)
system.switch_cpus_1.mmu.stage2_itb.alignFaults            0                       # Number of TLB faults due to alignment restrictions (Count)
system.switch_cpus_1.mmu.stage2_itb.prefetchFaults            0                       # Number of TLB faults due to prefetch (Count)
system.switch_cpus_1.mmu.stage2_itb.domainFaults            0                       # Number of TLB faults due to domain restrictions (Count)
system.switch_cpus_1.mmu.stage2_itb.permsFaults            0                       # Number of TLB faults due to permissions restrictions (Count)
system.switch_cpus_1.mmu.stage2_itb.readAccesses            0                       # DTB read accesses (Count)
system.switch_cpus_1.mmu.stage2_itb.writeAccesses            0                       # DTB write accesses (Count)
system.switch_cpus_1.mmu.stage2_itb.instAccesses            0                       # ITB inst accesses (Count)
system.switch_cpus_1.mmu.stage2_itb.hits            0                       # Total TLB (inst and data) hits (Count)
system.switch_cpus_1.mmu.stage2_itb.misses            0                       # Total TLB (inst and data) misses (Count)
system.switch_cpus_1.mmu.stage2_itb.accesses            0                       # Total TLB (inst and data) accesses (Count)
system.switch_cpus_1.mmu.stage2_itb_walker.walks            0                       # Table walker walks requested (Count)
system.switch_cpus_1.mmu.stage2_itb_walker.requestOrigin_Requested::Data            0                       # Table walker requests started/completed, data/inst (Count)
system.switch_cpus_1.mmu.stage2_itb_walker.requestOrigin_Requested::Inst            0                       # Table walker requests started/completed, data/inst (Count)
system.switch_cpus_1.mmu.stage2_itb_walker.requestOrigin_Requested::total            0                       # Table walker requests started/completed, data/inst (Count)
system.switch_cpus_1.mmu.stage2_itb_walker.requestOrigin_Completed::Data            0                       # Table walker requests started/completed, data/inst (Count)
system.switch_cpus_1.mmu.stage2_itb_walker.requestOrigin_Completed::Inst            0                       # Table walker requests started/completed, data/inst (Count)
system.switch_cpus_1.mmu.stage2_itb_walker.requestOrigin_Completed::total            0                       # Table walker requests started/completed, data/inst (Count)
system.switch_cpus_1.mmu.stage2_itb_walker.requestOrigin::total            0                       # Table walker requests started/completed, data/inst (Count)
system.switch_cpus_1.mmu.stage2_itb_walker.power_state.pwrStateResidencyTicks::UNDEFINED 1011575198500                       # Cumulative time (in ticks) in various power states (Tick)
system.switch_cpus_1.power_state.pwrStateResidencyTicks::OFF 1011575198500                       # Cumulative time (in ticks) in various power states (Tick)
system.switch_cpus_1.rename.squashCycles        13687                       # Number of cycles rename is squashing (Cycle)
system.switch_cpus_1.rename.idleCycles       15110476                       # Number of cycles rename is idle (Cycle)
system.switch_cpus_1.rename.blockCycles     211111438                       # Number of cycles rename is blocking (Cycle)
system.switch_cpus_1.rename.serializeStallCycles         1742                       # count of cycles rename stalled for serializing inst (Cycle)
system.switch_cpus_1.rename.runCycles        23783222                       # Number of cycles rename is running (Cycle)
system.switch_cpus_1.rename.unblockCycles    277608452                       # Number of cycles rename is unblocking (Cycle)
system.switch_cpus_1.rename.renamedInsts    254029291                       # Number of instructions processed by rename (Count)
system.switch_cpus_1.rename.ROBFullEvents        11757                       # Number of times rename has blocked due to ROB full (Count)
system.switch_cpus_1.rename.IQFullEvents     19444040                       # Number of times rename has blocked due to IQ full (Count)
system.switch_cpus_1.rename.LQFullEvents    253152081                       # Number of times rename has blocked due to LQ full (Count)
system.switch_cpus_1.rename.SQFullEvents      8182135                       # Number of times rename has blocked due to SQ full (Count)
system.switch_cpus_1.rename.renamedOperands    352542224                       # Number of destination operands rename has renamed (Count)
system.switch_cpus_1.rename.lookups        1011781673                       # Number of register rename lookups that rename has made (Count)
system.switch_cpus_1.rename.intLookups      289816998                       # Number of integer rename lookups (Count)
system.switch_cpus_1.rename.vecLookups      223659342                       # Number of vector rename lookups (Count)
system.switch_cpus_1.rename.committedMaps    351542821                       # Number of HB maps that are committed (Count)
system.switch_cpus_1.rename.undoneMaps         999310                       # Number of HB maps that are undone due to squashing (Count)
system.switch_cpus_1.rename.serializing            36                       # count of serializing insts renamed (Count)
system.switch_cpus_1.rename.tempSerializing           26                       # count of temporary serializing insts renamed (Count)
system.switch_cpus_1.rename.skidInsts       126154863                       # count of insts added to the skid buffer (Count)
system.switch_cpus_1.rob.reads              766498545                       # The number of ROB reads (Count)
system.switch_cpus_1.rob.writes             507776051                       # The number of ROB writes (Count)
system.switch_cpus_1.thread_0.numInsts      250000000                       # Number of Instructions committed (Count)
system.switch_cpus_1.thread_0.numOps        251537370                       # Number of Ops committed (Count)
system.switch_cpus_1.thread_0.numMemRefs            0                       # Number of Memory References (Count)
system.tol2bus.transDist::ReadResp           30187752                       # Transaction distribution (Count)
system.tol2bus.transDist::WritebackDirty      1722348                       # Transaction distribution (Count)
system.tol2bus.transDist::WritebackClean           64                       # Transaction distribution (Count)
system.tol2bus.transDist::CleanEvict         37262524                       # Transaction distribution (Count)
system.tol2bus.transDist::ReadExReq           1137676                       # Transaction distribution (Count)
system.tol2bus.transDist::ReadExResp          1137676                       # Transaction distribution (Count)
system.tol2bus.transDist::ReadCleanReq             64                       # Transaction distribution (Count)
system.tol2bus.transDist::ReadSharedReq      30187691                       # Transaction distribution (Count)
system.tol2bus.pktCount_system.cpu.icache.mem_side_port::system.l2.cpu_side_port          192                       # Packet count per connected requestor and responder (Count)
system.tol2bus.pktCount_system.cpu.dcache.mem_side_port::system.l2.cpu_side_port     93976095                       # Packet count per connected requestor and responder (Count)
system.tol2bus.pktCount::total               93976287                       # Packet count per connected requestor and responder (Count)
system.tol2bus.pktSize_system.cpu.icache.mem_side_port::system.l2.cpu_side_port         8192                       # Cumulative packet size per connected requestor and responder (Byte)
system.tol2bus.pktSize_system.cpu.dcache.mem_side_port::system.l2.cpu_side_port   2080657728                       # Cumulative packet size per connected requestor and responder (Byte)
system.tol2bus.pktSize::total              2080665920                       # Cumulative packet size per connected requestor and responder (Byte)
system.tol2bus.snoops                         7659508                       # Total snoops (Count)
system.tol2bus.snoopTraffic                  34395840                       # Total snoop traffic (Byte)
system.tol2bus.snoopFanout::samples          38984939                       # Request fanout histogram (Count)
system.tol2bus.snoopFanout::mean             0.009763                       # Request fanout histogram (Count)
system.tol2bus.snoopFanout::stdev            0.098326                       # Request fanout histogram (Count)
system.tol2bus.snoopFanout::underflows              0      0.00%      0.00% # Request fanout histogram (Count)
system.tol2bus.snoopFanout::0                38604316     99.02%     99.02% # Request fanout histogram (Count)
system.tol2bus.snoopFanout::1                  380623      0.98%    100.00% # Request fanout histogram (Count)
system.tol2bus.snoopFanout::2                       0      0.00%    100.00% # Request fanout histogram (Count)
system.tol2bus.snoopFanout::overflows               0      0.00%    100.00% # Request fanout histogram (Count)
system.tol2bus.snoopFanout::min_value               0                       # Request fanout histogram (Count)
system.tol2bus.snoopFanout::max_value               1                       # Request fanout histogram (Count)
system.tol2bus.snoopFanout::total            38984939                       # Request fanout histogram (Count)
system.tol2bus.power_state.pwrStateResidencyTicks::UNDEFINED 1011575198500                       # Cumulative time (in ticks) in various power states (Tick)
system.tol2bus.reqLayer0.occupancy        32510406500                       # Layer occupancy (ticks) (Tick)
system.tol2bus.reqLayer0.utilization              0.1                       # Layer utilization (Ratio)
system.tol2bus.respLayer0.occupancy             96000                       # Layer occupancy (ticks) (Tick)
system.tol2bus.respLayer0.utilization             0.0                       # Layer utilization (Ratio)
system.tol2bus.respLayer1.occupancy       46988046000                       # Layer occupancy (ticks) (Tick)
system.tol2bus.respLayer1.utilization             0.2                       # Layer utilization (Ratio)
system.tol2bus.snoop_filter.totRequests      62650859                       # Total number of requests made to the snoop filter. (Count)
system.tol2bus.snoop_filter.hitSingleRequests     31325428                       # Number of requests hitting in the snoop filter with a single holder of the requested data. (Count)
system.tol2bus.snoop_filter.hitMultiRequests            0                       # Number of requests hitting in the snoop filter with multiple (>1) holders of the requested data. (Count)
system.tol2bus.snoop_filter.totSnoops          380623                       # Total number of snoops made to the snoop filter. (Count)
system.tol2bus.snoop_filter.hitSingleSnoops       380623                       # Number of snoops hitting in the snoop filter with a single holder of the requested data. (Count)
system.tol2bus.snoop_filter.hitMultiSnoops            0                       # Number of snoops hitting in the snoop filter with multiple (>1) holders of the requested data. (Count)
system.voltage_domain.voltage                       1                       # Voltage in Volts (Volt)
system.workload.inst.arm                            0                       # number of arm instructions executed (Count)
system.workload.inst.quiesce                        0                       # number of quiesce instructions executed (Count)

---------- End Simulation Statistics   ----------
