
---------- Begin Simulation Statistics ----------
final_tick                               2536848596000                       # Number of ticks from beginning of simulation (restored from checkpoints and never reset)
host_inst_rate                                 188835                       # Simulator instruction rate (inst/s)
host_mem_usage                                4535316                       # Number of bytes of host memory used
host_op_rate                                   344042                       # Simulator op (including micro ops) rate (op/s)
host_seconds                                  6884.32                       # Real time elapsed on the host
host_tick_rate                              139713574                       # Simulator tick rate (ticks/s)
sim_freq                                 1000000000000                       # Frequency of simulated ticks
sim_insts                                  1300000003                       # Number of instructions simulated
sim_ops                                    2368493426                       # Number of ops (including micro ops) simulated
sim_seconds                                  0.961833                       # Number of seconds simulated
sim_ticks                                961833461750                       # Number of ticks simulated
system.cpu.committedInsts                           0                       # Number of instructions committed
system.cpu.committedOps                             0                       # Number of ops (including micro ops) committed
system.cpu.dtb.rdAccesses                           0                       # TLB accesses on read requests
system.cpu.dtb.rdMisses                             0                       # TLB misses on read requests
system.cpu.dtb.wrAccesses                           0                       # TLB accesses on write requests
system.cpu.dtb.wrMisses                             0                       # TLB misses on write requests
system.cpu.idle_fraction                            0                       # Percentage of idle cycles
system.cpu.itb.rdAccesses                           0                       # TLB accesses on read requests
system.cpu.itb.rdMisses                             0                       # TLB misses on read requests
system.cpu.itb.wrAccesses                           0                       # TLB accesses on write requests
system.cpu.itb.wrMisses                             0                       # TLB misses on write requests
system.cpu.not_idle_fraction                        1                       # Percentage of non-idle cycles
system.cpu.numCycles                                0                       # number of cpu cycles simulated
system.cpu.numWorkItemsCompleted                    0                       # number of work items this cpu completed
system.cpu.numWorkItemsStarted                      0                       # number of work items this cpu started
system.cpu.num_busy_cycles                          0                       # Number of busy cycles
system.cpu.num_conditional_control_insts            0                       # number of instructions that are conditional controls
system.cpu.num_fp_alu_accesses                      0                       # Number of float alu accesses
system.cpu.num_fp_insts                             0                       # number of float instructions
system.cpu.num_fp_register_reads                    0                       # number of times the floating registers were read
system.cpu.num_fp_register_writes                   0                       # number of times the floating registers were written
system.cpu.num_func_calls                           0                       # number of times a function call or return occured
system.cpu.num_idle_cycles                          0                       # Number of idle cycles
system.cpu.num_int_alu_accesses                     0                       # Number of integer alu accesses
system.cpu.num_int_insts                            0                       # number of integer instructions
system.cpu.num_int_register_reads                   0                       # number of times the integer registers were read
system.cpu.num_int_register_writes                  0                       # number of times the integer registers were written
system.cpu.num_load_insts                           0                       # Number of load instructions
system.cpu.num_mem_refs                             0                       # number of memory refs
system.cpu.num_store_insts                          0                       # Number of store instructions
system.cpu.num_vec_alu_accesses                     0                       # Number of vector alu accesses
system.cpu.num_vec_insts                            0                       # number of vector instructions
system.cpu.num_vec_register_reads                   0                       # number of times the vector registers were read
system.cpu.num_vec_register_writes                  0                       # number of times the vector registers were written
system.cpu.op_class::No_OpClass                     0                       # Class of executed instruction
system.cpu.op_class::IntAlu                         0                       # Class of executed instruction
system.cpu.op_class::IntMult                        0                       # Class of executed instruction
system.cpu.op_class::IntDiv                         0                       # Class of executed instruction
system.cpu.op_class::FloatAdd                       0                       # Class of executed instruction
system.cpu.op_class::FloatCmp                       0                       # Class of executed instruction
system.cpu.op_class::FloatCvt                       0                       # Class of executed instruction
system.cpu.op_class::FloatMult                      0                       # Class of executed instruction
system.cpu.op_class::FloatMultAcc                   0                       # Class of executed instruction
system.cpu.op_class::FloatDiv                       0                       # Class of executed instruction
system.cpu.op_class::FloatMisc                      0                       # Class of executed instruction
system.cpu.op_class::FloatSqrt                      0                       # Class of executed instruction
system.cpu.op_class::SimdAdd                        0                       # Class of executed instruction
system.cpu.op_class::SimdAddAcc                     0                       # Class of executed instruction
system.cpu.op_class::SimdAlu                        0                       # Class of executed instruction
system.cpu.op_class::SimdCmp                        0                       # Class of executed instruction
system.cpu.op_class::SimdCvt                        0                       # Class of executed instruction
system.cpu.op_class::SimdMisc                       0                       # Class of executed instruction
system.cpu.op_class::SimdMult                       0                       # Class of executed instruction
system.cpu.op_class::SimdMultAcc                    0                       # Class of executed instruction
system.cpu.op_class::SimdShift                      0                       # Class of executed instruction
system.cpu.op_class::SimdShiftAcc                   0                       # Class of executed instruction
system.cpu.op_class::SimdDiv                        0                       # Class of executed instruction
system.cpu.op_class::SimdSqrt                       0                       # Class of executed instruction
system.cpu.op_class::SimdFloatAdd                   0                       # Class of executed instruction
system.cpu.op_class::SimdFloatAlu                   0                       # Class of executed instruction
system.cpu.op_class::SimdFloatCmp                   0                       # Class of executed instruction
system.cpu.op_class::SimdFloatCvt                   0                       # Class of executed instruction
system.cpu.op_class::SimdFloatDiv                   0                       # Class of executed instruction
system.cpu.op_class::SimdFloatMisc                  0                       # Class of executed instruction
system.cpu.op_class::SimdFloatMult                  0                       # Class of executed instruction
system.cpu.op_class::SimdFloatMultAcc               0                       # Class of executed instruction
system.cpu.op_class::SimdFloatSqrt                  0                       # Class of executed instruction
system.cpu.op_class::SimdReduceAdd                  0                       # Class of executed instruction
system.cpu.op_class::SimdReduceAlu                  0                       # Class of executed instruction
system.cpu.op_class::SimdReduceCmp                  0                       # Class of executed instruction
system.cpu.op_class::SimdFloatReduceAdd             0                       # Class of executed instruction
system.cpu.op_class::SimdFloatReduceCmp             0                       # Class of executed instruction
system.cpu.op_class::SimdAes                        0                       # Class of executed instruction
system.cpu.op_class::SimdAesMix                     0                       # Class of executed instruction
system.cpu.op_class::SimdSha1Hash                   0                       # Class of executed instruction
system.cpu.op_class::SimdSha1Hash2                  0                       # Class of executed instruction
system.cpu.op_class::SimdSha256Hash                 0                       # Class of executed instruction
system.cpu.op_class::SimdSha256Hash2                0                       # Class of executed instruction
system.cpu.op_class::SimdShaSigma2                  0                       # Class of executed instruction
system.cpu.op_class::SimdShaSigma3                  0                       # Class of executed instruction
system.cpu.op_class::SimdPredAlu                    0                       # Class of executed instruction
system.cpu.op_class::MemRead                        0                       # Class of executed instruction
system.cpu.op_class::MemWrite                       0                       # Class of executed instruction
system.cpu.op_class::FloatMemRead                   0                       # Class of executed instruction
system.cpu.op_class::FloatMemWrite                  0                       # Class of executed instruction
system.cpu.op_class::IprAccess                      0                       # Class of executed instruction
system.cpu.op_class::InstPrefetch                   0                       # Class of executed instruction
system.cpu.op_class::total                          0                       # Class of executed instruction
system.cpu.workload.numSyscalls                     0                       # Number of system calls
system.membus.snoop_filter.hit_multi_requests            0                       # Number of requests hitting in the snoop filter with multiple (>1) holders of the requested data.
system.membus.snoop_filter.hit_multi_snoops            0                       # Number of snoops hitting in the snoop filter with multiple (>1) holders of the requested data.
system.membus.snoop_filter.hit_single_requests     16987508                       # Number of requests hitting in the snoop filter with a single holder of the requested data.
system.membus.snoop_filter.hit_single_snoops            0                       # Number of snoops hitting in the snoop filter with a single holder of the requested data.
system.membus.snoop_filter.tot_requests      33965728                       # Total number of requests made to the snoop filter.
system.membus.snoop_filter.tot_snoops               0                       # Total number of snoops made to the snoop filter.
system.switch_cpus.committedInsts                   0                       # Number of instructions committed
system.switch_cpus.committedOps                     0                       # Number of ops (including micro ops) committed
system.switch_cpus.dtb.rdAccesses                   0                       # TLB accesses on read requests
system.switch_cpus.dtb.rdMisses                     0                       # TLB misses on read requests
system.switch_cpus.dtb.wrAccesses                   0                       # TLB accesses on write requests
system.switch_cpus.dtb.wrMisses                     0                       # TLB misses on write requests
system.switch_cpus.idle_fraction                    0                       # Percentage of idle cycles
system.switch_cpus.itb.rdAccesses                   0                       # TLB accesses on read requests
system.switch_cpus.itb.rdMisses                     0                       # TLB misses on read requests
system.switch_cpus.itb.wrAccesses                   0                       # TLB accesses on write requests
system.switch_cpus.itb.wrMisses                     0                       # TLB misses on write requests
system.switch_cpus.not_idle_fraction                1                       # Percentage of non-idle cycles
system.switch_cpus.numCycles                        0                       # number of cpu cycles simulated
system.switch_cpus.numWorkItemsCompleted            0                       # number of work items this cpu completed
system.switch_cpus.numWorkItemsStarted              0                       # number of work items this cpu started
system.switch_cpus.num_busy_cycles                  0                       # Number of busy cycles
system.switch_cpus.num_conditional_control_insts            0                       # number of instructions that are conditional controls
system.switch_cpus.num_fp_alu_accesses              0                       # Number of float alu accesses
system.switch_cpus.num_fp_insts                     0                       # number of float instructions
system.switch_cpus.num_fp_register_reads            0                       # number of times the floating registers were read
system.switch_cpus.num_fp_register_writes            0                       # number of times the floating registers were written
system.switch_cpus.num_func_calls                   0                       # number of times a function call or return occured
system.switch_cpus.num_idle_cycles                  0                       # Number of idle cycles
system.switch_cpus.num_int_alu_accesses             0                       # Number of integer alu accesses
system.switch_cpus.num_int_insts                    0                       # number of integer instructions
system.switch_cpus.num_int_register_reads            0                       # number of times the integer registers were read
system.switch_cpus.num_int_register_writes            0                       # number of times the integer registers were written
system.switch_cpus.num_load_insts                   0                       # Number of load instructions
system.switch_cpus.num_mem_refs                     0                       # number of memory refs
system.switch_cpus.num_store_insts                  0                       # Number of store instructions
system.switch_cpus.num_vec_alu_accesses             0                       # Number of vector alu accesses
system.switch_cpus.num_vec_insts                    0                       # number of vector instructions
system.switch_cpus.num_vec_register_reads            0                       # number of times the vector registers were read
system.switch_cpus.num_vec_register_writes            0                       # number of times the vector registers were written
system.switch_cpus.op_class::No_OpClass             0                       # Class of executed instruction
system.switch_cpus.op_class::IntAlu                 0                       # Class of executed instruction
system.switch_cpus.op_class::IntMult                0                       # Class of executed instruction
system.switch_cpus.op_class::IntDiv                 0                       # Class of executed instruction
system.switch_cpus.op_class::FloatAdd               0                       # Class of executed instruction
system.switch_cpus.op_class::FloatCmp               0                       # Class of executed instruction
system.switch_cpus.op_class::FloatCvt               0                       # Class of executed instruction
system.switch_cpus.op_class::FloatMult              0                       # Class of executed instruction
system.switch_cpus.op_class::FloatMultAcc            0                       # Class of executed instruction
system.switch_cpus.op_class::FloatDiv               0                       # Class of executed instruction
system.switch_cpus.op_class::FloatMisc              0                       # Class of executed instruction
system.switch_cpus.op_class::FloatSqrt              0                       # Class of executed instruction
system.switch_cpus.op_class::SimdAdd                0                       # Class of executed instruction
system.switch_cpus.op_class::SimdAddAcc             0                       # Class of executed instruction
system.switch_cpus.op_class::SimdAlu                0                       # Class of executed instruction
system.switch_cpus.op_class::SimdCmp                0                       # Class of executed instruction
system.switch_cpus.op_class::SimdCvt                0                       # Class of executed instruction
system.switch_cpus.op_class::SimdMisc               0                       # Class of executed instruction
system.switch_cpus.op_class::SimdMult               0                       # Class of executed instruction
system.switch_cpus.op_class::SimdMultAcc            0                       # Class of executed instruction
system.switch_cpus.op_class::SimdShift              0                       # Class of executed instruction
system.switch_cpus.op_class::SimdShiftAcc            0                       # Class of executed instruction
system.switch_cpus.op_class::SimdDiv                0                       # Class of executed instruction
system.switch_cpus.op_class::SimdSqrt               0                       # Class of executed instruction
system.switch_cpus.op_class::SimdFloatAdd            0                       # Class of executed instruction
system.switch_cpus.op_class::SimdFloatAlu            0                       # Class of executed instruction
system.switch_cpus.op_class::SimdFloatCmp            0                       # Class of executed instruction
system.switch_cpus.op_class::SimdFloatCvt            0                       # Class of executed instruction
system.switch_cpus.op_class::SimdFloatDiv            0                       # Class of executed instruction
system.switch_cpus.op_class::SimdFloatMisc            0                       # Class of executed instruction
system.switch_cpus.op_class::SimdFloatMult            0                       # Class of executed instruction
system.switch_cpus.op_class::SimdFloatMultAcc            0                       # Class of executed instruction
system.switch_cpus.op_class::SimdFloatSqrt            0                       # Class of executed instruction
system.switch_cpus.op_class::SimdReduceAdd            0                       # Class of executed instruction
system.switch_cpus.op_class::SimdReduceAlu            0                       # Class of executed instruction
system.switch_cpus.op_class::SimdReduceCmp            0                       # Class of executed instruction
system.switch_cpus.op_class::SimdFloatReduceAdd            0                       # Class of executed instruction
system.switch_cpus.op_class::SimdFloatReduceCmp            0                       # Class of executed instruction
system.switch_cpus.op_class::SimdAes                0                       # Class of executed instruction
system.switch_cpus.op_class::SimdAesMix             0                       # Class of executed instruction
system.switch_cpus.op_class::SimdSha1Hash            0                       # Class of executed instruction
system.switch_cpus.op_class::SimdSha1Hash2            0                       # Class of executed instruction
system.switch_cpus.op_class::SimdSha256Hash            0                       # Class of executed instruction
system.switch_cpus.op_class::SimdSha256Hash2            0                       # Class of executed instruction
system.switch_cpus.op_class::SimdShaSigma2            0                       # Class of executed instruction
system.switch_cpus.op_class::SimdShaSigma3            0                       # Class of executed instruction
system.switch_cpus.op_class::SimdPredAlu            0                       # Class of executed instruction
system.switch_cpus.op_class::MemRead                0                       # Class of executed instruction
system.switch_cpus.op_class::MemWrite               0                       # Class of executed instruction
system.switch_cpus.op_class::FloatMemRead            0                       # Class of executed instruction
system.switch_cpus.op_class::FloatMemWrite            0                       # Class of executed instruction
system.switch_cpus.op_class::IprAccess              0                       # Class of executed instruction
system.switch_cpus.op_class::InstPrefetch            0                       # Class of executed instruction
system.switch_cpus.op_class::total                  0                       # Class of executed instruction
system.switch_cpus_1.branchPred.BTBCorrect            0                       # Number of correct BTB predictions (this stat may not work properly.
system.switch_cpus_1.branchPred.BTBHitPct          nan                       # BTB Hit Percentage
system.switch_cpus_1.branchPred.BTBHits             0                       # Number of BTB hits
system.switch_cpus_1.branchPred.BTBLookups            0                       # Number of BTB lookups
system.switch_cpus_1.branchPred.RASInCorrect           17                       # Number of incorrect RAS predictions.
system.switch_cpus_1.branchPred.condIncorrect     17467125                       # Number of conditional branches incorrect
system.switch_cpus_1.branchPred.condPredicted    234473099                       # Number of conditional branches predicted
system.switch_cpus_1.branchPred.indirectHits     65021969                       # Number of indirect target hits.
system.switch_cpus_1.branchPred.indirectLookups    124897737                       # Number of indirect predictor lookups.
system.switch_cpus_1.branchPred.indirectMisses     59875768                       # Number of indirect misses.
system.switch_cpus_1.branchPred.lookups     251260688                       # Number of BP lookups
system.switch_cpus_1.branchPred.usedRAS      10018022                       # Number of times the RAS was used to get a target.
system.switch_cpus_1.branchPredindirectMispredicted      8200892                       # Number of mispredicted indirect branches.
system.switch_cpus_1.cc_regfile_reads       509917604                       # number of cc regfile reads
system.switch_cpus_1.cc_regfile_writes      319097346                       # number of cc regfile writes
system.switch_cpus_1.commit.amos                    0                       # Number of atomic instructions committed
system.switch_cpus_1.commit.branchMispredicts     17467132                       # The number of times a branch was mispredicted
system.switch_cpus_1.commit.branches         65048692                       # Number of branches committed
system.switch_cpus_1.commit.bw_lim_events     21096614                       # number cycles where commit BW limit reached
system.switch_cpus_1.commit.commitSquashedInsts    767019707                       # The number of squashed insts skipped by commit
system.switch_cpus_1.commit.committedInsts    250000000                       # Number of instructions committed
system.switch_cpus_1.commit.committedOps    438832217                       # Number of ops (including micro ops) committed
system.switch_cpus_1.commit.committed_per_cycle::samples   1800807765                       # Number of insts commited each cycle
system.switch_cpus_1.commit.committed_per_cycle::mean     0.243686                       # Number of insts commited each cycle
system.switch_cpus_1.commit.committed_per_cycle::stdev     1.102021                       # Number of insts commited each cycle
system.switch_cpus_1.commit.committed_per_cycle::underflows            0      0.00%      0.00% # Number of insts commited each cycle
system.switch_cpus_1.commit.committed_per_cycle::0   1671087640     92.80%     92.80% # Number of insts commited each cycle
system.switch_cpus_1.commit.committed_per_cycle::1     44824143      2.49%     95.29% # Number of insts commited each cycle
system.switch_cpus_1.commit.committed_per_cycle::2     12674470      0.70%     95.99% # Number of insts commited each cycle
system.switch_cpus_1.commit.committed_per_cycle::3     27806115      1.54%     97.53% # Number of insts commited each cycle
system.switch_cpus_1.commit.committed_per_cycle::4      7309021      0.41%     97.94% # Number of insts commited each cycle
system.switch_cpus_1.commit.committed_per_cycle::5      9710932      0.54%     98.48% # Number of insts commited each cycle
system.switch_cpus_1.commit.committed_per_cycle::6      5414677      0.30%     98.78% # Number of insts commited each cycle
system.switch_cpus_1.commit.committed_per_cycle::7       884153      0.05%     98.83% # Number of insts commited each cycle
system.switch_cpus_1.commit.committed_per_cycle::8     21096614      1.17%    100.00% # Number of insts commited each cycle
system.switch_cpus_1.commit.committed_per_cycle::overflows            0      0.00%    100.00% # Number of insts commited each cycle
system.switch_cpus_1.commit.committed_per_cycle::min_value            0                       # Number of insts commited each cycle
system.switch_cpus_1.commit.committed_per_cycle::max_value            8                       # Number of insts commited each cycle
system.switch_cpus_1.commit.committed_per_cycle::total   1800807765                       # Number of insts commited each cycle
system.switch_cpus_1.commit.fp_insts                0                       # Number of committed floating point instructions.
system.switch_cpus_1.commit.function_calls       388438                       # Number of function calls committed.
system.switch_cpus_1.commit.int_insts       437417765                       # Number of committed integer instructions.
system.switch_cpus_1.commit.loads            91658152                       # Number of loads committed
system.switch_cpus_1.commit.membars                 0                       # Number of memory barriers committed
system.switch_cpus_1.commit.op_class_0::No_OpClass       818557      0.19%      0.19% # Class of committed instruction
system.switch_cpus_1.commit.op_class_0::IntAlu    329029507     74.98%     75.16% # Class of committed instruction
system.switch_cpus_1.commit.op_class_0::IntMult        13175      0.00%     75.17% # Class of committed instruction
system.switch_cpus_1.commit.op_class_0::IntDiv            0      0.00%     75.17% # Class of committed instruction
system.switch_cpus_1.commit.op_class_0::FloatAdd            0      0.00%     75.17% # Class of committed instruction
system.switch_cpus_1.commit.op_class_0::FloatCmp            0      0.00%     75.17% # Class of committed instruction
system.switch_cpus_1.commit.op_class_0::FloatCvt            0      0.00%     75.17% # Class of committed instruction
system.switch_cpus_1.commit.op_class_0::FloatMult            0      0.00%     75.17% # Class of committed instruction
system.switch_cpus_1.commit.op_class_0::FloatMultAcc            0      0.00%     75.17% # Class of committed instruction
system.switch_cpus_1.commit.op_class_0::FloatDiv            0      0.00%     75.17% # Class of committed instruction
system.switch_cpus_1.commit.op_class_0::FloatMisc            0      0.00%     75.17% # Class of committed instruction
system.switch_cpus_1.commit.op_class_0::FloatSqrt            0      0.00%     75.17% # Class of committed instruction
system.switch_cpus_1.commit.op_class_0::SimdAdd            0      0.00%     75.17% # Class of committed instruction
system.switch_cpus_1.commit.op_class_0::SimdAddAcc            0      0.00%     75.17% # Class of committed instruction
system.switch_cpus_1.commit.op_class_0::SimdAlu            0      0.00%     75.17% # Class of committed instruction
system.switch_cpus_1.commit.op_class_0::SimdCmp            0      0.00%     75.17% # Class of committed instruction
system.switch_cpus_1.commit.op_class_0::SimdCvt            0      0.00%     75.17% # Class of committed instruction
system.switch_cpus_1.commit.op_class_0::SimdMisc            0      0.00%     75.17% # Class of committed instruction
system.switch_cpus_1.commit.op_class_0::SimdMult            0      0.00%     75.17% # Class of committed instruction
system.switch_cpus_1.commit.op_class_0::SimdMultAcc            0      0.00%     75.17% # Class of committed instruction
system.switch_cpus_1.commit.op_class_0::SimdShift            0      0.00%     75.17% # Class of committed instruction
system.switch_cpus_1.commit.op_class_0::SimdShiftAcc            0      0.00%     75.17% # Class of committed instruction
system.switch_cpus_1.commit.op_class_0::SimdDiv            0      0.00%     75.17% # Class of committed instruction
system.switch_cpus_1.commit.op_class_0::SimdSqrt            0      0.00%     75.17% # Class of committed instruction
system.switch_cpus_1.commit.op_class_0::SimdFloatAdd            0      0.00%     75.17% # Class of committed instruction
system.switch_cpus_1.commit.op_class_0::SimdFloatAlu            0      0.00%     75.17% # Class of committed instruction
system.switch_cpus_1.commit.op_class_0::SimdFloatCmp            0      0.00%     75.17% # Class of committed instruction
system.switch_cpus_1.commit.op_class_0::SimdFloatCvt            0      0.00%     75.17% # Class of committed instruction
system.switch_cpus_1.commit.op_class_0::SimdFloatDiv            0      0.00%     75.17% # Class of committed instruction
system.switch_cpus_1.commit.op_class_0::SimdFloatMisc            0      0.00%     75.17% # Class of committed instruction
system.switch_cpus_1.commit.op_class_0::SimdFloatMult            0      0.00%     75.17% # Class of committed instruction
system.switch_cpus_1.commit.op_class_0::SimdFloatMultAcc            0      0.00%     75.17% # Class of committed instruction
system.switch_cpus_1.commit.op_class_0::SimdFloatSqrt            0      0.00%     75.17% # Class of committed instruction
system.switch_cpus_1.commit.op_class_0::SimdReduceAdd            0      0.00%     75.17% # Class of committed instruction
system.switch_cpus_1.commit.op_class_0::SimdReduceAlu            0      0.00%     75.17% # Class of committed instruction
system.switch_cpus_1.commit.op_class_0::SimdReduceCmp            0      0.00%     75.17% # Class of committed instruction
system.switch_cpus_1.commit.op_class_0::SimdFloatReduceAdd            0      0.00%     75.17% # Class of committed instruction
system.switch_cpus_1.commit.op_class_0::SimdFloatReduceCmp            0      0.00%     75.17% # Class of committed instruction
system.switch_cpus_1.commit.op_class_0::SimdAes            0      0.00%     75.17% # Class of committed instruction
system.switch_cpus_1.commit.op_class_0::SimdAesMix            0      0.00%     75.17% # Class of committed instruction
system.switch_cpus_1.commit.op_class_0::SimdSha1Hash            0      0.00%     75.17% # Class of committed instruction
system.switch_cpus_1.commit.op_class_0::SimdSha1Hash2            0      0.00%     75.17% # Class of committed instruction
system.switch_cpus_1.commit.op_class_0::SimdSha256Hash            0      0.00%     75.17% # Class of committed instruction
system.switch_cpus_1.commit.op_class_0::SimdSha256Hash2            0      0.00%     75.17% # Class of committed instruction
system.switch_cpus_1.commit.op_class_0::SimdShaSigma2            0      0.00%     75.17% # Class of committed instruction
system.switch_cpus_1.commit.op_class_0::SimdShaSigma3            0      0.00%     75.17% # Class of committed instruction
system.switch_cpus_1.commit.op_class_0::SimdPredAlu            0      0.00%     75.17% # Class of committed instruction
system.switch_cpus_1.commit.op_class_0::MemRead     91658152     20.89%     96.05% # Class of committed instruction
system.switch_cpus_1.commit.op_class_0::MemWrite     17312826      3.95%    100.00% # Class of committed instruction
system.switch_cpus_1.commit.op_class_0::FloatMemRead            0      0.00%    100.00% # Class of committed instruction
system.switch_cpus_1.commit.op_class_0::FloatMemWrite            0      0.00%    100.00% # Class of committed instruction
system.switch_cpus_1.commit.op_class_0::IprAccess            0      0.00%    100.00% # Class of committed instruction
system.switch_cpus_1.commit.op_class_0::InstPrefetch            0      0.00%    100.00% # Class of committed instruction
system.switch_cpus_1.commit.op_class_0::total    438832217                       # Class of committed instruction
system.switch_cpus_1.commit.refs            108970978                       # Number of memory references committed
system.switch_cpus_1.commit.swp_count               0                       # Number of s/w prefetches committed
system.switch_cpus_1.commit.vec_insts               0                       # Number of committed Vector instructions.
system.switch_cpus_1.committedInsts         250000000                       # Number of Instructions Simulated
system.switch_cpus_1.committedOps           438832217                       # Number of Ops (including micro ops) Simulated
system.switch_cpus_1.cpi                     7.694668                       # CPI: Cycles Per Instruction
system.switch_cpus_1.cpi_total               7.694668                       # CPI: Total CPI of All Threads
system.switch_cpus_1.decode.BlockedCycles   1629550722                       # Number of cycles decode is blocked
system.switch_cpus_1.decode.DecodedInsts   1444931050                       # Number of instructions handled by decode
system.switch_cpus_1.decode.IdleCycles       79478111                       # Number of cycles decode is idle
system.switch_cpus_1.decode.RunCycles       151765977                       # Number of cycles decode is running
system.switch_cpus_1.decode.SquashCycles     17512326                       # Number of cycles decode is squashing
system.switch_cpus_1.decode.UnblockCycles     45359781                       # Number of cycles decode is unblocking
system.switch_cpus_1.dtb.rdAccesses         178230470                       # TLB accesses on read requests
system.switch_cpus_1.dtb.rdMisses            20764302                       # TLB misses on read requests
system.switch_cpus_1.dtb.wrAccesses          35573518                       # TLB accesses on write requests
system.switch_cpus_1.dtb.wrMisses              316618                       # TLB misses on write requests
system.switch_cpus_1.fetch.Branches         251260688                       # Number of branches that fetch encountered
system.switch_cpus_1.fetch.CacheLines       103842499                       # Number of cache lines fetched
system.switch_cpus_1.fetch.Cycles          1791116718                       # Number of cycles fetch has run and was not squashing or blocked
system.switch_cpus_1.fetch.IcacheSquashes      2857191                       # Number of outstanding Icache misses that were squashed
system.switch_cpus_1.fetch.Insts            990193332                       # Number of instructions fetch has processed
system.switch_cpus_1.fetch.MiscStallCycles            7                       # Number of cycles fetch has spent waiting on interrupts, or bad addresses, or out of MSHRs
system.switch_cpus_1.fetch.PendingTrapStallCycles          143                       # Number of stall cycles due to pending traps
system.switch_cpus_1.fetch.SquashCycles      35024652                       # Number of cycles fetch has spent squashing
system.switch_cpus_1.fetch.branchRate        0.130615                       # Number of branch fetches per cycle
system.switch_cpus_1.fetch.icacheStallCycles    115037729                       # Number of cycles fetch is stalled on an Icache miss
system.switch_cpus_1.fetch.predictedBranches     75039991                       # Number of branches that fetch has predicted taken
system.switch_cpus_1.fetch.rate              0.514743                       # Number of inst fetches per cycle
system.switch_cpus_1.fetch.rateDist::samples   1923666923                       # Number of instructions fetched each cycle (Total)
system.switch_cpus_1.fetch.rateDist::mean     0.913885                       # Number of instructions fetched each cycle (Total)
system.switch_cpus_1.fetch.rateDist::stdev     2.393752                       # Number of instructions fetched each cycle (Total)
system.switch_cpus_1.fetch.rateDist::underflows            0      0.00%      0.00% # Number of instructions fetched each cycle (Total)
system.switch_cpus_1.fetch.rateDist::0     1648148328     85.68%     85.68% # Number of instructions fetched each cycle (Total)
system.switch_cpus_1.fetch.rateDist::1       11195055      0.58%     86.26% # Number of instructions fetched each cycle (Total)
system.switch_cpus_1.fetch.rateDist::2       18257687      0.95%     87.21% # Number of instructions fetched each cycle (Total)
system.switch_cpus_1.fetch.rateDist::3       13413048      0.70%     87.91% # Number of instructions fetched each cycle (Total)
system.switch_cpus_1.fetch.rateDist::4       19978970      1.04%     88.94% # Number of instructions fetched each cycle (Total)
system.switch_cpus_1.fetch.rateDist::5       24724309      1.29%     90.23% # Number of instructions fetched each cycle (Total)
system.switch_cpus_1.fetch.rateDist::6        6969371      0.36%     90.59% # Number of instructions fetched each cycle (Total)
system.switch_cpus_1.fetch.rateDist::7       23134697      1.20%     91.79% # Number of instructions fetched each cycle (Total)
system.switch_cpus_1.fetch.rateDist::8      157845458      8.21%    100.00% # Number of instructions fetched each cycle (Total)
system.switch_cpus_1.fetch.rateDist::overflows            0      0.00%    100.00% # Number of instructions fetched each cycle (Total)
system.switch_cpus_1.fetch.rateDist::min_value            0                       # Number of instructions fetched each cycle (Total)
system.switch_cpus_1.fetch.rateDist::max_value            8                       # Number of instructions fetched each cycle (Total)
system.switch_cpus_1.fetch.rateDist::total   1923666923                       # Number of instructions fetched each cycle (Total)
system.switch_cpus_1.iew.branchMispredicts     24457427                       # Number of branch mispredicts detected at execute
system.switch_cpus_1.iew.exec_branches      116072606                       # Number of branches executed
system.switch_cpus_1.iew.exec_nop                   0                       # number of nop insts executed
system.switch_cpus_1.iew.exec_rate           0.530789                       # Inst execution rate
system.switch_cpus_1.iew.exec_refs          294487065                       # number of memory reference insts executed
system.switch_cpus_1.iew.exec_stores         35573518                       # Number of stores executed
system.switch_cpus_1.iew.exec_swp                   0                       # number of swp insts executed
system.switch_cpus_1.iew.iewBlockCycles    1008923370                       # Number of cycles IEW is blocking
system.switch_cpus_1.iew.iewDispLoadInsts    227423013                       # Number of dispatched load instructions
system.switch_cpus_1.iew.iewDispNonSpecInsts            0                       # Number of dispatched non-speculative instructions
system.switch_cpus_1.iew.iewDispSquashedInsts      1538356                       # Number of squashed instructions skipped by dispatch
system.switch_cpus_1.iew.iewDispStoreInsts     60320952                       # Number of dispatched store instructions
system.switch_cpus_1.iew.iewDispatchedInsts   1204526454                       # Number of instructions dispatched to IQ
system.switch_cpus_1.iew.iewExecLoadInsts    258913547                       # Number of load instructions executed
system.switch_cpus_1.iew.iewExecSquashedInsts     35041710                       # Number of squashed instructions skipped in execute
system.switch_cpus_1.iew.iewExecutedInsts   1021061709                       # Number of executed instructions
system.switch_cpus_1.iew.iewIQFullEvents      8575089                       # Number of times the IQ has become full, causing a stall
system.switch_cpus_1.iew.iewIdleCycles              0                       # Number of cycles IEW is idle
system.switch_cpus_1.iew.iewLSQFullEvents    125417214                       # Number of times the LSQ has become full, causing a stall
system.switch_cpus_1.iew.iewSquashCycles     17512326                       # Number of cycles IEW is squashing
system.switch_cpus_1.iew.iewUnblockCycles    140049310                       # Number of cycles IEW is unblocking
system.switch_cpus_1.iew.lsq.thread0.blockedLoads            0                       # Number of blocked loads due to partial load-store forwarding
system.switch_cpus_1.iew.lsq.thread0.cacheBlocked     11321762                       # Number of times an access to memory failed due to the cache being blocked
system.switch_cpus_1.iew.lsq.thread0.forwLoads      4030418                       # Number of loads that had data forwarded from stores
system.switch_cpus_1.iew.lsq.thread0.ignoredResponses        43635                       # Number of memory responses ignored because the instruction is squashed
system.switch_cpus_1.iew.lsq.thread0.invAddrLoads            0                       # Number of loads ignored due to an invalid address
system.switch_cpus_1.iew.lsq.thread0.invAddrSwpfs            0                       # Number of software prefetches ignored due to an invalid address
system.switch_cpus_1.iew.lsq.thread0.memOrderViolation        55805                       # Number of memory ordering violations
system.switch_cpus_1.iew.lsq.thread0.rescheduledLoads            0                       # Number of loads that were rescheduled
system.switch_cpus_1.iew.lsq.thread0.squashedLoads    135764859                       # Number of loads squashed
system.switch_cpus_1.iew.lsq.thread0.squashedStores     43008125                       # Number of stores squashed
system.switch_cpus_1.iew.memOrderViolationEvents        55805                       # Number of memory order violations
system.switch_cpus_1.iew.predictedNotTakenIncorrect     21532918                       # Number of branches that were predicted not taken incorrectly
system.switch_cpus_1.iew.predictedTakenIncorrect      2924509                       # Number of branches that were predicted taken incorrectly
system.switch_cpus_1.iew.wb_consumers       988343879                       # num instructions consuming a value
system.switch_cpus_1.iew.wb_count           904180087                       # cumulative count of insts written-back
system.switch_cpus_1.iew.wb_fanout           0.663436                       # average fanout of values written-back
system.switch_cpus_1.iew.wb_producers       655702665                       # num instructions producing a value
system.switch_cpus_1.iew.wb_rate             0.470029                       # insts written-back per cycle
system.switch_cpus_1.iew.wb_sent            911620056                       # cumulative count of insts sent to commit
system.switch_cpus_1.int_regfile_reads     1318950156                       # number of integer regfile reads
system.switch_cpus_1.int_regfile_writes     747125525                       # number of integer regfile writes
system.switch_cpus_1.ipc                     0.129960                       # IPC: Instructions Per Cycle
system.switch_cpus_1.ipc_total               0.129960                       # IPC: Total IPC of All Threads
system.switch_cpus_1.iq.FU_type_0::No_OpClass      7001725      0.66%      0.66% # Type of FU issued
system.switch_cpus_1.iq.FU_type_0::IntAlu    744961250     70.54%     71.20% # Type of FU issued
system.switch_cpus_1.iq.FU_type_0::IntMult        22439      0.00%     71.20% # Type of FU issued
system.switch_cpus_1.iq.FU_type_0::IntDiv            0      0.00%     71.20% # Type of FU issued
system.switch_cpus_1.iq.FU_type_0::FloatAdd            0      0.00%     71.20% # Type of FU issued
system.switch_cpus_1.iq.FU_type_0::FloatCmp            0      0.00%     71.20% # Type of FU issued
system.switch_cpus_1.iq.FU_type_0::FloatCvt            0      0.00%     71.20% # Type of FU issued
system.switch_cpus_1.iq.FU_type_0::FloatMult            0      0.00%     71.20% # Type of FU issued
system.switch_cpus_1.iq.FU_type_0::FloatMultAcc            0      0.00%     71.20% # Type of FU issued
system.switch_cpus_1.iq.FU_type_0::FloatDiv            0      0.00%     71.20% # Type of FU issued
system.switch_cpus_1.iq.FU_type_0::FloatMisc            0      0.00%     71.20% # Type of FU issued
system.switch_cpus_1.iq.FU_type_0::FloatSqrt            0      0.00%     71.20% # Type of FU issued
system.switch_cpus_1.iq.FU_type_0::SimdAdd            0      0.00%     71.20% # Type of FU issued
system.switch_cpus_1.iq.FU_type_0::SimdAddAcc            0      0.00%     71.20% # Type of FU issued
system.switch_cpus_1.iq.FU_type_0::SimdAlu            0      0.00%     71.20% # Type of FU issued
system.switch_cpus_1.iq.FU_type_0::SimdCmp            0      0.00%     71.20% # Type of FU issued
system.switch_cpus_1.iq.FU_type_0::SimdCvt            0      0.00%     71.20% # Type of FU issued
system.switch_cpus_1.iq.FU_type_0::SimdMisc            0      0.00%     71.20% # Type of FU issued
system.switch_cpus_1.iq.FU_type_0::SimdMult            0      0.00%     71.20% # Type of FU issued
system.switch_cpus_1.iq.FU_type_0::SimdMultAcc            0      0.00%     71.20% # Type of FU issued
system.switch_cpus_1.iq.FU_type_0::SimdShift            0      0.00%     71.20% # Type of FU issued
system.switch_cpus_1.iq.FU_type_0::SimdShiftAcc            0      0.00%     71.20% # Type of FU issued
system.switch_cpus_1.iq.FU_type_0::SimdDiv            0      0.00%     71.20% # Type of FU issued
system.switch_cpus_1.iq.FU_type_0::SimdSqrt            0      0.00%     71.20% # Type of FU issued
system.switch_cpus_1.iq.FU_type_0::SimdFloatAdd            0      0.00%     71.20% # Type of FU issued
system.switch_cpus_1.iq.FU_type_0::SimdFloatAlu            0      0.00%     71.20% # Type of FU issued
system.switch_cpus_1.iq.FU_type_0::SimdFloatCmp            0      0.00%     71.20% # Type of FU issued
system.switch_cpus_1.iq.FU_type_0::SimdFloatCvt            0      0.00%     71.20% # Type of FU issued
system.switch_cpus_1.iq.FU_type_0::SimdFloatDiv            0      0.00%     71.20% # Type of FU issued
system.switch_cpus_1.iq.FU_type_0::SimdFloatMisc            0      0.00%     71.20% # Type of FU issued
system.switch_cpus_1.iq.FU_type_0::SimdFloatMult            0      0.00%     71.20% # Type of FU issued
system.switch_cpus_1.iq.FU_type_0::SimdFloatMultAcc            0      0.00%     71.20% # Type of FU issued
system.switch_cpus_1.iq.FU_type_0::SimdFloatSqrt            0      0.00%     71.20% # Type of FU issued
system.switch_cpus_1.iq.FU_type_0::SimdReduceAdd            0      0.00%     71.20% # Type of FU issued
system.switch_cpus_1.iq.FU_type_0::SimdReduceAlu            0      0.00%     71.20% # Type of FU issued
system.switch_cpus_1.iq.FU_type_0::SimdReduceCmp            0      0.00%     71.20% # Type of FU issued
system.switch_cpus_1.iq.FU_type_0::SimdFloatReduceAdd            0      0.00%     71.20% # Type of FU issued
system.switch_cpus_1.iq.FU_type_0::SimdFloatReduceCmp            0      0.00%     71.20% # Type of FU issued
system.switch_cpus_1.iq.FU_type_0::SimdAes            0      0.00%     71.20% # Type of FU issued
system.switch_cpus_1.iq.FU_type_0::SimdAesMix            0      0.00%     71.20% # Type of FU issued
system.switch_cpus_1.iq.FU_type_0::SimdSha1Hash            0      0.00%     71.20% # Type of FU issued
system.switch_cpus_1.iq.FU_type_0::SimdSha1Hash2            0      0.00%     71.20% # Type of FU issued
system.switch_cpus_1.iq.FU_type_0::SimdSha256Hash            0      0.00%     71.20% # Type of FU issued
system.switch_cpus_1.iq.FU_type_0::SimdSha256Hash2            0      0.00%     71.20% # Type of FU issued
system.switch_cpus_1.iq.FU_type_0::SimdShaSigma2            0      0.00%     71.20% # Type of FU issued
system.switch_cpus_1.iq.FU_type_0::SimdShaSigma3            0      0.00%     71.20% # Type of FU issued
system.switch_cpus_1.iq.FU_type_0::SimdPredAlu            0      0.00%     71.20% # Type of FU issued
system.switch_cpus_1.iq.FU_type_0::MemRead    265246400     25.12%     96.32% # Type of FU issued
system.switch_cpus_1.iq.FU_type_0::MemWrite     38871611      3.68%    100.00% # Type of FU issued
system.switch_cpus_1.iq.FU_type_0::FloatMemRead            0      0.00%    100.00% # Type of FU issued
system.switch_cpus_1.iq.FU_type_0::FloatMemWrite            0      0.00%    100.00% # Type of FU issued
system.switch_cpus_1.iq.FU_type_0::IprAccess            0      0.00%    100.00% # Type of FU issued
system.switch_cpus_1.iq.FU_type_0::InstPrefetch            0      0.00%    100.00% # Type of FU issued
system.switch_cpus_1.iq.FU_type_0::total   1056103425                       # Type of FU issued
system.switch_cpus_1.iq.fp_alu_accesses             0                       # Number of floating point alu accesses
system.switch_cpus_1.iq.fp_inst_queue_reads            0                       # Number of floating instruction queue reads
system.switch_cpus_1.iq.fp_inst_queue_wakeup_accesses            0                       # Number of floating instruction queue wakeup accesses
system.switch_cpus_1.iq.fp_inst_queue_writes            0                       # Number of floating instruction queue writes
system.switch_cpus_1.iq.fu_busy_cnt          29638327                       # FU busy when requested
system.switch_cpus_1.iq.fu_busy_rate         0.028064                       # FU busy rate (busy events/executed inst)
system.switch_cpus_1.iq.fu_full::No_OpClass            0      0.00%      0.00% # attempts to use FU when none available
system.switch_cpus_1.iq.fu_full::IntAlu      11694537     39.46%     39.46% # attempts to use FU when none available
system.switch_cpus_1.iq.fu_full::IntMult            0      0.00%     39.46% # attempts to use FU when none available
system.switch_cpus_1.iq.fu_full::IntDiv             0      0.00%     39.46% # attempts to use FU when none available
system.switch_cpus_1.iq.fu_full::FloatAdd            0      0.00%     39.46% # attempts to use FU when none available
system.switch_cpus_1.iq.fu_full::FloatCmp            0      0.00%     39.46% # attempts to use FU when none available
system.switch_cpus_1.iq.fu_full::FloatCvt            0      0.00%     39.46% # attempts to use FU when none available
system.switch_cpus_1.iq.fu_full::FloatMult            0      0.00%     39.46% # attempts to use FU when none available
system.switch_cpus_1.iq.fu_full::FloatMultAcc            0      0.00%     39.46% # attempts to use FU when none available
system.switch_cpus_1.iq.fu_full::FloatDiv            0      0.00%     39.46% # attempts to use FU when none available
system.switch_cpus_1.iq.fu_full::FloatMisc            0      0.00%     39.46% # attempts to use FU when none available
system.switch_cpus_1.iq.fu_full::FloatSqrt            0      0.00%     39.46% # attempts to use FU when none available
system.switch_cpus_1.iq.fu_full::SimdAdd            0      0.00%     39.46% # attempts to use FU when none available
system.switch_cpus_1.iq.fu_full::SimdAddAcc            0      0.00%     39.46% # attempts to use FU when none available
system.switch_cpus_1.iq.fu_full::SimdAlu            0      0.00%     39.46% # attempts to use FU when none available
system.switch_cpus_1.iq.fu_full::SimdCmp            0      0.00%     39.46% # attempts to use FU when none available
system.switch_cpus_1.iq.fu_full::SimdCvt            0      0.00%     39.46% # attempts to use FU when none available
system.switch_cpus_1.iq.fu_full::SimdMisc            0      0.00%     39.46% # attempts to use FU when none available
system.switch_cpus_1.iq.fu_full::SimdMult            0      0.00%     39.46% # attempts to use FU when none available
system.switch_cpus_1.iq.fu_full::SimdMultAcc            0      0.00%     39.46% # attempts to use FU when none available
system.switch_cpus_1.iq.fu_full::SimdShift            0      0.00%     39.46% # attempts to use FU when none available
system.switch_cpus_1.iq.fu_full::SimdShiftAcc            0      0.00%     39.46% # attempts to use FU when none available
system.switch_cpus_1.iq.fu_full::SimdDiv            0      0.00%     39.46% # attempts to use FU when none available
system.switch_cpus_1.iq.fu_full::SimdSqrt            0      0.00%     39.46% # attempts to use FU when none available
system.switch_cpus_1.iq.fu_full::SimdFloatAdd            0      0.00%     39.46% # attempts to use FU when none available
system.switch_cpus_1.iq.fu_full::SimdFloatAlu            0      0.00%     39.46% # attempts to use FU when none available
system.switch_cpus_1.iq.fu_full::SimdFloatCmp            0      0.00%     39.46% # attempts to use FU when none available
system.switch_cpus_1.iq.fu_full::SimdFloatCvt            0      0.00%     39.46% # attempts to use FU when none available
system.switch_cpus_1.iq.fu_full::SimdFloatDiv            0      0.00%     39.46% # attempts to use FU when none available
system.switch_cpus_1.iq.fu_full::SimdFloatMisc            0      0.00%     39.46% # attempts to use FU when none available
system.switch_cpus_1.iq.fu_full::SimdFloatMult            0      0.00%     39.46% # attempts to use FU when none available
system.switch_cpus_1.iq.fu_full::SimdFloatMultAcc            0      0.00%     39.46% # attempts to use FU when none available
system.switch_cpus_1.iq.fu_full::SimdFloatSqrt            0      0.00%     39.46% # attempts to use FU when none available
system.switch_cpus_1.iq.fu_full::SimdReduceAdd            0      0.00%     39.46% # attempts to use FU when none available
system.switch_cpus_1.iq.fu_full::SimdReduceAlu            0      0.00%     39.46% # attempts to use FU when none available
system.switch_cpus_1.iq.fu_full::SimdReduceCmp            0      0.00%     39.46% # attempts to use FU when none available
system.switch_cpus_1.iq.fu_full::SimdFloatReduceAdd            0      0.00%     39.46% # attempts to use FU when none available
system.switch_cpus_1.iq.fu_full::SimdFloatReduceCmp            0      0.00%     39.46% # attempts to use FU when none available
system.switch_cpus_1.iq.fu_full::SimdAes            0      0.00%     39.46% # attempts to use FU when none available
system.switch_cpus_1.iq.fu_full::SimdAesMix            0      0.00%     39.46% # attempts to use FU when none available
system.switch_cpus_1.iq.fu_full::SimdSha1Hash            0      0.00%     39.46% # attempts to use FU when none available
system.switch_cpus_1.iq.fu_full::SimdSha1Hash2            0      0.00%     39.46% # attempts to use FU when none available
system.switch_cpus_1.iq.fu_full::SimdSha256Hash            0      0.00%     39.46% # attempts to use FU when none available
system.switch_cpus_1.iq.fu_full::SimdSha256Hash2            0      0.00%     39.46% # attempts to use FU when none available
system.switch_cpus_1.iq.fu_full::SimdShaSigma2            0      0.00%     39.46% # attempts to use FU when none available
system.switch_cpus_1.iq.fu_full::SimdShaSigma3            0      0.00%     39.46% # attempts to use FU when none available
system.switch_cpus_1.iq.fu_full::SimdPredAlu            0      0.00%     39.46% # attempts to use FU when none available
system.switch_cpus_1.iq.fu_full::MemRead     17179658     57.96%     97.42% # attempts to use FU when none available
system.switch_cpus_1.iq.fu_full::MemWrite       764132      2.58%    100.00% # attempts to use FU when none available
system.switch_cpus_1.iq.fu_full::FloatMemRead            0      0.00%    100.00% # attempts to use FU when none available
system.switch_cpus_1.iq.fu_full::FloatMemWrite            0      0.00%    100.00% # attempts to use FU when none available
system.switch_cpus_1.iq.fu_full::IprAccess            0      0.00%    100.00% # attempts to use FU when none available
system.switch_cpus_1.iq.fu_full::InstPrefetch            0      0.00%    100.00% # attempts to use FU when none available
system.switch_cpus_1.iq.int_alu_accesses   1078740027                       # Number of integer alu accesses
system.switch_cpus_1.iq.int_inst_queue_reads   4083879647                       # Number of integer instruction queue reads
system.switch_cpus_1.iq.int_inst_queue_wakeup_accesses    904180087                       # Number of integer instruction queue wakeup accesses
system.switch_cpus_1.iq.int_inst_queue_writes   1970268491                       # Number of integer instruction queue writes
system.switch_cpus_1.iq.iqInstsAdded       1204526454                       # Number of instructions added to the IQ (excludes non-spec)
system.switch_cpus_1.iq.iqInstsIssued      1056103425                       # Number of instructions issued
system.switch_cpus_1.iq.iqSquashedInstsExamined    765694220                       # Number of squashed instructions iterated over during squash; mainly for profiling
system.switch_cpus_1.iq.iqSquashedInstsIssued     18367553                       # Number of squashed instructions issued
system.switch_cpus_1.iq.iqSquashedOperandsExamined   1050084751                       # Number of squashed operands that are examined and possibly removed from graph
system.switch_cpus_1.iq.issued_per_cycle::samples   1923666923                       # Number of insts issued each cycle
system.switch_cpus_1.iq.issued_per_cycle::mean     0.549005                       # Number of insts issued each cycle
system.switch_cpus_1.iq.issued_per_cycle::stdev     1.461154                       # Number of insts issued each cycle
system.switch_cpus_1.iq.issued_per_cycle::underflows            0      0.00%      0.00% # Number of insts issued each cycle
system.switch_cpus_1.iq.issued_per_cycle::0   1589966202     82.65%     82.65% # Number of insts issued each cycle
system.switch_cpus_1.iq.issued_per_cycle::1     95799211      4.98%     87.63% # Number of insts issued each cycle
system.switch_cpus_1.iq.issued_per_cycle::2     59027838      3.07%     90.70% # Number of insts issued each cycle
system.switch_cpus_1.iq.issued_per_cycle::3     47447100      2.47%     93.17% # Number of insts issued each cycle
system.switch_cpus_1.iq.issued_per_cycle::4     43533678      2.26%     95.43% # Number of insts issued each cycle
system.switch_cpus_1.iq.issued_per_cycle::5     34321495      1.78%     97.22% # Number of insts issued each cycle
system.switch_cpus_1.iq.issued_per_cycle::6     30394721      1.58%     98.80% # Number of insts issued each cycle
system.switch_cpus_1.iq.issued_per_cycle::7     13616699      0.71%     99.50% # Number of insts issued each cycle
system.switch_cpus_1.iq.issued_per_cycle::8      9559979      0.50%    100.00% # Number of insts issued each cycle
system.switch_cpus_1.iq.issued_per_cycle::overflows            0      0.00%    100.00% # Number of insts issued each cycle
system.switch_cpus_1.iq.issued_per_cycle::min_value            0                       # Number of insts issued each cycle
system.switch_cpus_1.iq.issued_per_cycle::max_value            8                       # Number of insts issued each cycle
system.switch_cpus_1.iq.issued_per_cycle::total   1923666923                       # Number of insts issued each cycle
system.switch_cpus_1.iq.rate                 0.549005                       # Inst issue rate
system.switch_cpus_1.iq.vec_alu_accesses            0                       # Number of vector alu accesses
system.switch_cpus_1.iq.vec_inst_queue_reads            0                       # Number of vector instruction queue reads
system.switch_cpus_1.iq.vec_inst_queue_wakeup_accesses            0                       # Number of vector instruction queue wakeup accesses
system.switch_cpus_1.iq.vec_inst_queue_writes            0                       # Number of vector instruction queue writes
system.switch_cpus_1.itb.rdAccesses                 0                       # TLB accesses on read requests
system.switch_cpus_1.itb.rdMisses                   0                       # TLB misses on read requests
system.switch_cpus_1.itb.wrAccesses         103842552                       # TLB accesses on write requests
system.switch_cpus_1.itb.wrMisses                  57                       # TLB misses on write requests
system.switch_cpus_1.memDep0.conflictingLoads     21727989                       # Number of conflicting loads.
system.switch_cpus_1.memDep0.conflictingStores     22204845                       # Number of conflicting stores.
system.switch_cpus_1.memDep0.insertedLoads    227423013                       # Number of loads inserted to the mem dependence unit.
system.switch_cpus_1.memDep0.insertedStores     60320952                       # Number of stores inserted to the mem dependence unit.
system.switch_cpus_1.misc_regfile_reads     577557952                       # number of misc regfile reads
system.switch_cpus_1.numCycles             1923666923                       # number of cpu cycles simulated
system.switch_cpus_1.numWorkItemsCompleted            0                       # number of work items this cpu completed
system.switch_cpus_1.numWorkItemsStarted            0                       # number of work items this cpu started
system.switch_cpus_1.rename.BlockCycles    1395732858                       # Number of cycles rename is blocking
system.switch_cpus_1.rename.CommittedMaps    531324784                       # Number of HB maps that are committed
system.switch_cpus_1.rename.IQFullEvents    109492829                       # Number of times rename has blocked due to IQ full
system.switch_cpus_1.rename.IdleCycles      100058660                       # Number of cycles rename is idle
system.switch_cpus_1.rename.LQFullEvents    148670573                       # Number of times rename has blocked due to LQ full
system.switch_cpus_1.rename.ROBFullEvents     10133336                       # Number of times rename has blocked due to ROB full
system.switch_cpus_1.rename.RenameLookups   3482282245                       # Number of register rename lookups that rename has made
system.switch_cpus_1.rename.RenamedInsts   1349196999                       # Number of instructions processed by rename
system.switch_cpus_1.rename.RenamedOperands   1589772718                       # Number of destination operands rename has renamed
system.switch_cpus_1.rename.RunCycles       167289056                       # Number of cycles rename is running
system.switch_cpus_1.rename.SQFullEvents     12276208                       # Number of times rename has blocked due to SQ full
system.switch_cpus_1.rename.SquashCycles     17512326                       # Number of cycles rename is squashing
system.switch_cpus_1.rename.UnblockCycles    243074018                       # Number of cycles rename is unblocking
system.switch_cpus_1.rename.UndoneMaps     1058447903                       # Number of HB maps that are undone due to squashing
system.switch_cpus_1.rename.int_rename_lookups   1870552394                       # Number of integer rename lookups
system.switch_cpus_1.rename.serializeStallCycles            0                       # count of cycles rename stalled for serializing inst
system.switch_cpus_1.rename.serializingInsts            0                       # count of serializing insts renamed
system.switch_cpus_1.rename.skidInsts       242079334                       # count of insts added to the skid buffer
system.switch_cpus_1.rename.tempSerializingInsts            0                       # count of temporary serializing insts renamed
system.switch_cpus_1.rob.rob_reads         2985563075                       # The number of ROB reads
system.switch_cpus_1.rob.rob_writes        2535745912                       # The number of ROB writes
system.tol2bus.snoop_filter.hit_multi_requests           86                       # Number of requests hitting in the snoop filter with multiple (>1) holders of the requested data.
system.tol2bus.snoop_filter.hit_multi_snoops            1                       # Number of snoops hitting in the snoop filter with multiple (>1) holders of the requested data.
system.tol2bus.snoop_filter.hit_single_requests     31212503                       # Number of requests hitting in the snoop filter with a single holder of the requested data.
system.tol2bus.snoop_filter.hit_single_snoops       178957                       # Number of snoops hitting in the snoop filter with a single holder of the requested data.
system.tol2bus.snoop_filter.tot_requests     57169898                       # Total number of requests made to the snoop filter.
system.tol2bus.snoop_filter.tot_snoops         178958                       # Total number of snoops made to the snoop filter.
system.tol3bus.snoop_filter.hit_multi_requests            0                       # Number of requests hitting in the snoop filter with multiple (>1) holders of the requested data.
system.tol3bus.snoop_filter.hit_multi_snoops            0                       # Number of snoops hitting in the snoop filter with multiple (>1) holders of the requested data.
system.tol3bus.snoop_filter.hit_single_requests     26354765                       # Number of requests hitting in the snoop filter with a single holder of the requested data.
system.tol3bus.snoop_filter.hit_single_snoops      4088399                       # Number of snoops hitting in the snoop filter with a single holder of the requested data.
system.tol3bus.snoop_filter.tot_requests     48923830                       # Total number of requests made to the snoop filter.
system.tol3bus.snoop_filter.tot_snoops        4088399                       # Total number of snoops made to the snoop filter.
system.membus.trans_dist::ReadResp           16694045                       # Transaction distribution
system.membus.trans_dist::WritebackDirty      4072251                       # Transaction distribution
system.membus.trans_dist::CleanEvict         12908028                       # Transaction distribution
system.membus.trans_dist::UpgradeReq             7151                       # Transaction distribution
system.membus.trans_dist::ReadExReq            284253                       # Transaction distribution
system.membus.trans_dist::ReadExResp           284253                       # Transaction distribution
system.membus.trans_dist::ReadSharedReq      16694045                       # Transaction distribution
system.membus.pkt_count_system.l3.mem_side::system.mem_ctrls.port     50944026                       # Packet count per connected master and slave (bytes)
system.membus.pkt_count_system.l3.mem_side::total     50944026                       # Packet count per connected master and slave (bytes)
system.membus.pkt_count::total               50944026                       # Packet count per connected master and slave (bytes)
system.membus.pkt_size_system.l3.mem_side::system.mem_ctrls.port   1347235136                       # Cumulative packet size per connected master and slave (bytes)
system.membus.pkt_size_system.l3.mem_side::total   1347235136                       # Cumulative packet size per connected master and slave (bytes)
system.membus.pkt_size::total              1347235136                       # Cumulative packet size per connected master and slave (bytes)
system.membus.snoops                                0                       # Total snoops (count)
system.membus.snoopTraffic                          0                       # Total snoop traffic (bytes)
system.membus.snoop_fanout::samples          16985449                       # Request fanout histogram
system.membus.snoop_fanout::mean                    0                       # Request fanout histogram
system.membus.snoop_fanout::stdev                   0                       # Request fanout histogram
system.membus.snoop_fanout::underflows              0      0.00%      0.00% # Request fanout histogram
system.membus.snoop_fanout::0                16985449    100.00%    100.00% # Request fanout histogram
system.membus.snoop_fanout::1                       0      0.00%    100.00% # Request fanout histogram
system.membus.snoop_fanout::overflows               0      0.00%    100.00% # Request fanout histogram
system.membus.snoop_fanout::min_value               0                       # Request fanout histogram
system.membus.snoop_fanout::max_value               0                       # Request fanout histogram
system.membus.snoop_fanout::total            16985449                       # Request fanout histogram
system.membus.reqLayer2.occupancy         54738487000                       # Layer occupancy (ticks)
system.membus.reqLayer2.utilization               5.7                       # Layer utilization (%)
system.membus.respLayer1.occupancy        92709202000                       # Layer occupancy (ticks)
system.membus.respLayer1.utilization              9.6                       # Layer utilization (%)
system.membus.power_state.pwrStateResidencyTicks::UNDEFINED 2536848596000                       # Cumulative time (in ticks) in various power states
system.switch_cpus_1.dtb.walker.power_state.pwrStateResidencyTicks::UNDEFINED 2536848596000                       # Cumulative time (in ticks) in various power states
system.switch_cpus_1.itb.walker.power_state.pwrStateResidencyTicks::UNDEFINED 2536848596000                       # Cumulative time (in ticks) in various power states
system.switch_cpus_1.power_state.pwrStateResidencyTicks::OFF 2536848596000                       # Cumulative time (in ticks) in various power states
system.switch_cpus.dtb.walker.power_state.pwrStateResidencyTicks::UNDEFINED 2536848596000                       # Cumulative time (in ticks) in various power states
system.switch_cpus.itb.walker.power_state.pwrStateResidencyTicks::UNDEFINED 2536848596000                       # Cumulative time (in ticks) in various power states
system.switch_cpus.power_state.numTransitions            1                       # Number of power state transitions
system.switch_cpus.power_state.pwrStateResidencyTicks::OFF 2536848596000                       # Cumulative time (in ticks) in various power states
system.tol2bus.trans_dist::ReadResp          24978986                       # Transaction distribution
system.tol2bus.trans_dist::WritebackDirty     10326725                       # Transaction distribution
system.tol2bus.trans_dist::WritebackClean            4                       # Transaction distribution
system.tol2bus.trans_dist::CleanEvict        23811948                       # Transaction distribution
system.tol2bus.trans_dist::UpgradeReq         5255108                       # Transaction distribution
system.tol2bus.trans_dist::UpgradeResp        5255107                       # Transaction distribution
system.tol2bus.trans_dist::ReadExReq           978409                       # Transaction distribution
system.tol2bus.trans_dist::ReadExResp          978409                       # Transaction distribution
system.tol2bus.trans_dist::ReadCleanReq      24978986                       # Transaction distribution
system.tol2bus.pkt_count_system.cpu.icache.mem_side::system.l2.cpu_side           11                       # Packet count per connected master and slave (bytes)
system.tol2bus.pkt_count_system.cpu.dcache.mem_side::system.l2.cpu_side     88382388                       # Packet count per connected master and slave (bytes)
system.tol2bus.pkt_count::total              88382399                       # Packet count per connected master and slave (bytes)
system.tol2bus.pkt_size_system.cpu.icache.mem_side::system.l2.cpu_side          448                       # Cumulative packet size per connected master and slave (bytes)
system.tol2bus.pkt_size_system.cpu.dcache.mem_side::system.l2.cpu_side   2060211648                       # Cumulative packet size per connected master and slave (bytes)
system.tol2bus.pkt_size::total             2060212096                       # Cumulative packet size per connected master and slave (bytes)
system.tol2bus.snoops                         8181283                       # Total snoops (count)
system.tol2bus.snoopTraffic                 261971840                       # Total snoop traffic (bytes)
system.tol2bus.snoop_fanout::samples         39393785                       # Request fanout histogram
system.tol2bus.snoop_fanout::mean            0.004545                       # Request fanout histogram
system.tol2bus.snoop_fanout::stdev           0.067264                       # Request fanout histogram
system.tol2bus.snoop_fanout::underflows             0      0.00%      0.00% # Request fanout histogram
system.tol2bus.snoop_fanout::0               39214741     99.55%     99.55% # Request fanout histogram
system.tol2bus.snoop_fanout::1                 179043      0.45%    100.00% # Request fanout histogram
system.tol2bus.snoop_fanout::2                      1      0.00%    100.00% # Request fanout histogram
system.tol2bus.snoop_fanout::3                      0      0.00%    100.00% # Request fanout histogram
system.tol2bus.snoop_fanout::4                      0      0.00%    100.00% # Request fanout histogram
system.tol2bus.snoop_fanout::overflows              0      0.00%    100.00% # Request fanout histogram
system.tol2bus.snoop_fanout::min_value              0                       # Request fanout histogram
system.tol2bus.snoop_fanout::max_value              2                       # Request fanout histogram
system.tol2bus.snoop_fanout::total           39393785                       # Request fanout histogram
system.tol2bus.reqLayer0.occupancy        34818369000                       # Layer occupancy (ticks)
system.tol2bus.reqLayer0.utilization              3.6                       # Layer utilization (%)
system.tol2bus.respLayer1.occupancy       41563640000                       # Layer occupancy (ticks)
system.tol2bus.respLayer1.utilization             4.3                       # Layer utilization (%)
system.tol2bus.respLayer0.occupancy              6000                       # Layer occupancy (ticks)
system.tol2bus.respLayer0.utilization             0.0                       # Layer utilization (%)
system.tol2bus.power_state.pwrStateResidencyTicks::UNDEFINED 2536848596000                       # Cumulative time (in ticks) in various power states
system.voltage_domain.voltage                       1                       # Voltage in Volts
system.clk_domain.clock                          1000                       # Clock period in ticks
system.l2.demand_hits::.switch_cpus_1.inst            1                       # number of demand (read+write) hits
system.l2.demand_hits::.switch_cpus_1.data      3388244                       # number of demand (read+write) hits
system.l2.demand_hits::total                  3388245                       # number of demand (read+write) hits
system.l2.overall_hits::.switch_cpus_1.inst            1                       # number of overall hits
system.l2.overall_hits::.switch_cpus_1.data      3388244                       # number of overall hits
system.l2.overall_hits::total                 3388245                       # number of overall hits
system.l2.demand_misses::.switch_cpus_1.inst            2                       # number of demand (read+write) misses
system.l2.demand_misses::.switch_cpus_1.data     22569147                       # number of demand (read+write) misses
system.l2.demand_misses::total               22569149                       # number of demand (read+write) misses
system.l2.overall_misses::.switch_cpus_1.inst            2                       # number of overall misses
system.l2.overall_misses::.switch_cpus_1.data     22569147                       # number of overall misses
system.l2.overall_misses::total              22569149                       # number of overall misses
system.l2.demand_miss_latency::.switch_cpus_1.inst       214000                       # number of demand (read+write) miss cycles
system.l2.demand_miss_latency::.switch_cpus_1.data 2068865123000                       # number of demand (read+write) miss cycles
system.l2.demand_miss_latency::total     2068865337000                       # number of demand (read+write) miss cycles
system.l2.overall_miss_latency::.switch_cpus_1.inst       214000                       # number of overall miss cycles
system.l2.overall_miss_latency::.switch_cpus_1.data 2068865123000                       # number of overall miss cycles
system.l2.overall_miss_latency::total    2068865337000                       # number of overall miss cycles
system.l2.demand_accesses::.switch_cpus_1.inst            3                       # number of demand (read+write) accesses
system.l2.demand_accesses::.switch_cpus_1.data     25957391                       # number of demand (read+write) accesses
system.l2.demand_accesses::total             25957394                       # number of demand (read+write) accesses
system.l2.overall_accesses::.switch_cpus_1.inst            3                       # number of overall (read+write) accesses
system.l2.overall_accesses::.switch_cpus_1.data     25957391                       # number of overall (read+write) accesses
system.l2.overall_accesses::total            25957394                       # number of overall (read+write) accesses
system.l2.demand_miss_rate::.switch_cpus_1.inst     0.666667                       # miss rate for demand accesses
system.l2.demand_miss_rate::.switch_cpus_1.data     0.869469                       # miss rate for demand accesses
system.l2.demand_miss_rate::total            0.869469                       # miss rate for demand accesses
system.l2.overall_miss_rate::.switch_cpus_1.inst     0.666667                       # miss rate for overall accesses
system.l2.overall_miss_rate::.switch_cpus_1.data     0.869469                       # miss rate for overall accesses
system.l2.overall_miss_rate::total           0.869469                       # miss rate for overall accesses
system.l2.demand_avg_miss_latency::.switch_cpus_1.inst       107000                       # average overall miss latency
system.l2.demand_avg_miss_latency::.switch_cpus_1.data 91667.847394                       # average overall miss latency
system.l2.demand_avg_miss_latency::total 91667.848752                       # average overall miss latency
system.l2.overall_avg_miss_latency::.switch_cpus_1.inst       107000                       # average overall miss latency
system.l2.overall_avg_miss_latency::.switch_cpus_1.data 91667.847394                       # average overall miss latency
system.l2.overall_avg_miss_latency::total 91667.848752                       # average overall miss latency
system.l2.blocked_cycles::no_mshrs                  0                       # number of cycles access was blocked
[...]
system.cpu.dcache.demand_miss_latency::.switch_cpus_1.data 5060498544228                       # number of demand (read+write) miss cycles
system.cpu.dcache.demand_miss_latency::total 5487622355228                       # number of demand (read+write) miss cycles
system.cpu.dcache.overall_miss_latency::.switch_cpus.data 427123811000                       # number of overall miss cycles
system.cpu.dcache.overall_miss_latency::.switch_cpus_1.data 5060498544228                       # number of overall miss cycles
system.cpu.dcache.overall_miss_latency::total 5487622355228                       # number of overall miss cycles
system.cpu.dcache.demand_accesses::.cpu.data    383169197                       # number of demand (read+write) accesses
system.cpu.dcache.demand_accesses::.switch_cpus.data     21732152                       # number of demand (read+write) accesses
system.cpu.dcache.demand_accesses::.switch_cpus_1.data    180845912                       # number of demand (read+write) accesses
system.cpu.dcache.demand_accesses::total    585747261                       # number of demand (read+write) accesses
system.cpu.dcache.overall_accesses::.cpu.data    383169197                       # number of overall (read+write) accesses
system.cpu.dcache.overall_accesses::.switch_cpus.data     21732152                       # number of overall (read+write) accesses
system.cpu.dcache.overall_accesses::.switch_cpus_1.data    180845912                       # number of overall (read+write) accesses
system.cpu.dcache.overall_accesses::total    585747261                       # number of overall (read+write) accesses
system.cpu.dcache.demand_miss_rate::.cpu.data     0.170409                       # miss rate for demand accesses
system.cpu.dcache.demand_miss_rate::.switch_cpus.data     0.282444                       # miss rate for demand accesses
system.cpu.dcache.demand_miss_rate::.switch_cpus_1.data     0.392982                       # miss rate for demand accesses
system.cpu.dcache.demand_miss_rate::total     0.243284                       # miss rate for demand accesses
system.cpu.dcache.overall_miss_rate::.cpu.data     0.170409                       # miss rate for overall accesses
system.cpu.dcache.overall_miss_rate::.switch_cpus.data     0.282444                       # miss rate for overall accesses
system.cpu.dcache.overall_miss_rate::.switch_cpus_1.data     0.392982                       # miss rate for overall accesses
system.cpu.dcache.overall_miss_rate::total     0.243284                       # miss rate for overall accesses
system.cpu.dcache.demand_avg_miss_latency::.switch_cpus.data 69585.376872                       # average overall miss latency
system.cpu.dcache.demand_avg_miss_latency::.switch_cpus_1.data 71205.162235                       # average overall miss latency
system.cpu.dcache.demand_avg_miss_latency::total 38508.870384                       # average overall miss latency
system.cpu.dcache.overall_avg_miss_latency::.switch_cpus.data 69585.376872                       # average overall miss latency
system.cpu.dcache.overall_avg_miss_latency::.switch_cpus_1.data 71205.162235                       # average overall miss latency
system.cpu.dcache.overall_avg_miss_latency::total 38508.870384                       # average overall miss latency
system.cpu.dcache.blocked_cycles::no_mshrs    481364518                       # number of cycles access was blocked
system.cpu.dcache.blocked_cycles::no_targets      1301241                       # number of cycles access was blocked
system.cpu.dcache.blocked::no_mshrs          11988551                       # number of cycles access was blocked
system.cpu.dcache.blocked::no_targets           11523                       # number of cycles access was blocked
system.cpu.dcache.avg_blocked_cycles::no_mshrs    40.152018                       # average number of cycles each access was blocked
system.cpu.dcache.avg_blocked_cycles::no_targets   112.925540                       # average number of cycles each access was blocked
system.cpu.dcache.writebacks::.writebacks     19925717                       # number of writebacks
system.cpu.dcache.writebacks::total          19925717                       # number of writebacks
system.cpu.dcache.demand_mshr_hits::.switch_cpus_1.data     39858311                       # number of demand (read+write) MSHR hits
system.cpu.dcache.demand_mshr_hits::total     39858311                       # number of demand (read+write) MSHR hits
system.cpu.dcache.overall_mshr_hits::.switch_cpus_1.data     39858311                       # number of overall MSHR hits
system.cpu.dcache.overall_mshr_hits::total     39858311                       # number of overall MSHR hits
system.cpu.dcache.demand_mshr_misses::.switch_cpus.data      6138126                       # number of demand (read+write) MSHR misses
system.cpu.dcache.demand_mshr_misses::.switch_cpus_1.data     31210954                       # number of demand (read+write) MSHR misses
system.cpu.dcache.demand_mshr_misses::total     37349080                       # number of demand (read+write) MSHR misses
system.cpu.dcache.overall_mshr_misses::.switch_cpus.data      6138126                       # number of overall MSHR misses
system.cpu.dcache.overall_mshr_misses::.switch_cpus_1.data     31210954                       # number of overall MSHR misses
system.cpu.dcache.overall_mshr_misses::total     37349080                       # number of overall MSHR misses
system.cpu.dcache.demand_mshr_miss_latency::.switch_cpus.data 420985685000                       # number of demand (read+write) MSHR miss cycles
system.cpu.dcache.demand_mshr_miss_latency::.switch_cpus_1.data 2262298694228                       # number of demand (read+write) MSHR miss cycles
system.cpu.dcache.demand_mshr_miss_latency::total 2683284379228                       # number of demand (read+write) MSHR miss cycles
system.cpu.dcache.overall_mshr_miss_latency::.switch_cpus.data 420985685000                       # number of overall MSHR miss cycles
system.cpu.dcache.overall_mshr_miss_latency::.switch_cpus_1.data 2262298694228                       # number of overall MSHR miss cycles
system.cpu.dcache.overall_mshr_miss_latency::total 2683284379228                       # number of overall MSHR miss cycles
system.cpu.dcache.demand_mshr_miss_rate::.switch_cpus.data     0.282444                       # mshr miss rate for demand accesses
system.cpu.dcache.demand_mshr_miss_rate::.switch_cpus_1.data     0.172583                       # mshr miss rate for demand accesses
system.cpu.dcache.demand_mshr_miss_rate::total     0.063763                       # mshr miss rate for demand accesses
system.cpu.dcache.overall_mshr_miss_rate::.switch_cpus.data     0.282444                       # mshr miss rate for overall accesses
system.cpu.dcache.overall_mshr_miss_rate::.switch_cpus_1.data     0.172583                       # mshr miss rate for overall accesses
system.cpu.dcache.overall_mshr_miss_rate::total     0.063763                       # mshr miss rate for overall accesses
system.cpu.dcache.demand_avg_mshr_miss_latency::.switch_cpus.data 68585.376872                       # average overall mshr miss latency
system.cpu.dcache.demand_avg_mshr_miss_latency::.switch_cpus_1.data 72484.125100                       # average overall mshr miss latency
system.cpu.dcache.demand_avg_mshr_miss_latency::total 71843.386215                       # average overall mshr miss latency
system.cpu.dcache.overall_avg_mshr_miss_latency::.switch_cpus.data 68585.376872                       # average overall mshr miss latency
system.cpu.dcache.overall_avg_mshr_miss_latency::.switch_cpus_1.data 72484.125100                       # average overall mshr miss latency
system.cpu.dcache.overall_avg_mshr_miss_latency::total 71843.386215                       # average overall mshr miss latency
system.cpu.dcache.replacements               85901235                       # number of replacements
system.cpu.dcache.ReadReq_hits::.cpu.data    231979945                       # number of ReadReq hits
system.cpu.dcache.ReadReq_hits::.switch_cpus.data     13404161                       # number of ReadReq hits
system.cpu.dcache.ReadReq_hits::.switch_cpus_1.data     98697338                       # number of ReadReq hits
system.cpu.dcache.ReadReq_hits::total       344081444                       # number of ReadReq hits
system.cpu.dcache.ReadReq_misses::.cpu.data     52843192                       # number of ReadReq misses
system.cpu.dcache.ReadReq_misses::.switch_cpus.data      4897972                       # number of ReadReq misses
system.cpu.dcache.ReadReq_misses::.switch_cpus_1.data     64835748                       # number of ReadReq misses
system.cpu.dcache.ReadReq_misses::total     122576912                       # number of ReadReq misses
system.cpu.dcache.ReadReq_miss_latency::.switch_cpus.data 395478082500                       # number of ReadReq miss cycles
system.cpu.dcache.ReadReq_miss_latency::.switch_cpus_1.data 4900478706000                       # number of ReadReq miss cycles
system.cpu.dcache.ReadReq_miss_latency::total 5295956788500                       # number of ReadReq miss cycles
system.cpu.dcache.ReadReq_accesses::.cpu.data    284823137                       # number of ReadReq accesses(hits+misses)
system.cpu.dcache.ReadReq_accesses::.switch_cpus.data     18302133                       # number of ReadReq accesses(hits+misses)
system.cpu.dcache.ReadReq_accesses::.switch_cpus_1.data    163533086                       # number of ReadReq accesses(hits+misses)
system.cpu.dcache.ReadReq_accesses::total    466658356                       # number of ReadReq accesses(hits+misses)
system.cpu.dcache.ReadReq_miss_rate::.cpu.data     0.185530                       # miss rate for ReadReq accesses
system.cpu.dcache.ReadReq_miss_rate::.switch_cpus.data     0.267618                       # miss rate for ReadReq accesses
system.cpu.dcache.ReadReq_miss_rate::.switch_cpus_1.data     0.396469                       # miss rate for ReadReq accesses
system.cpu.dcache.ReadReq_miss_rate::total     0.262669                       # miss rate for ReadReq accesses
system.cpu.dcache.ReadReq_avg_miss_latency::.switch_cpus.data 80743.230566                       # average ReadReq miss latency
system.cpu.dcache.ReadReq_avg_miss_latency::.switch_cpus_1.data 75582.974781                       # average ReadReq miss latency
system.cpu.dcache.ReadReq_avg_miss_latency::total 43205.173814                       # average ReadReq miss latency
system.cpu.dcache.ReadReq_mshr_hits::.switch_cpus_1.data     39854182                       # number of ReadReq MSHR hits
system.cpu.dcache.ReadReq_mshr_hits::total     39854182                       # number of ReadReq MSHR hits
system.cpu.dcache.ReadReq_mshr_misses::.switch_cpus.data      4897972                       # number of ReadReq MSHR misses
system.cpu.dcache.ReadReq_mshr_misses::.switch_cpus_1.data     24981566                       # number of ReadReq MSHR misses
system.cpu.dcache.ReadReq_mshr_misses::total     29879538                       # number of ReadReq MSHR misses
system.cpu.dcache.ReadReq_mshr_miss_latency::.switch_cpus.data 390580110500                       # number of ReadReq MSHR miss cycles
system.cpu.dcache.ReadReq_mshr_miss_latency::.switch_cpus_1.data 2108545973500                       # number of ReadReq MSHR miss cycles
system.cpu.dcache.ReadReq_mshr_miss_latency::total 2499126084000                       # number of ReadReq MSHR miss cycles
system.cpu.dcache.ReadReq_mshr_miss_rate::.switch_cpus.data     0.267618                       # mshr miss rate for ReadReq accesses
system.cpu.dcache.ReadReq_mshr_miss_rate::.switch_cpus_1.data     0.152762                       # mshr miss rate for ReadReq accesses
system.cpu.dcache.ReadReq_mshr_miss_rate::total     0.064029                       # mshr miss rate for ReadReq accesses
system.cpu.dcache.ReadReq_avg_mshr_miss_latency::.switch_cpus.data 79743.230566                       # average ReadReq mshr miss latency
system.cpu.dcache.ReadReq_avg_mshr_miss_latency::.switch_cpus_1.data 84404.075129                       # average ReadReq mshr miss latency
system.cpu.dcache.ReadReq_avg_mshr_miss_latency::total 83640.051061                       # average ReadReq mshr miss latency
system.cpu.dcache.WriteReq_hits::.cpu.data     85893830                       # number of WriteReq hits
system.cpu.dcache.WriteReq_hits::.switch_cpus.data      2189865                       # number of WriteReq hits
system.cpu.dcache.WriteReq_hits::.switch_cpus_1.data     11079309                       # number of WriteReq hits
system.cpu.dcache.WriteReq_hits::total       99163004                       # number of WriteReq hits
system.cpu.dcache.WriteReq_misses::.cpu.data     12452230                       # number of WriteReq misses
system.cpu.dcache.WriteReq_misses::.switch_cpus.data      1240154                       # number of WriteReq misses
system.cpu.dcache.WriteReq_misses::.switch_cpus_1.data      6233517                       # number of WriteReq misses
system.cpu.dcache.WriteReq_misses::total     19925901                       # number of WriteReq misses
system.cpu.dcache.WriteReq_miss_latency::.switch_cpus.data  31645728500                       # number of WriteReq miss cycles
system.cpu.dcache.WriteReq_miss_latency::.switch_cpus_1.data 160019838228                       # number of WriteReq miss cycles
system.cpu.dcache.WriteReq_miss_latency::total 191665566728                       # number of WriteReq miss cycles
system.cpu.dcache.WriteReq_accesses::.cpu.data     98346060                       # number of WriteReq accesses(hits+misses)
system.cpu.dcache.WriteReq_accesses::.switch_cpus.data      3430019                       # number of WriteReq accesses(hits+misses)
system.cpu.dcache.WriteReq_accesses::.switch_cpus_1.data     17312826                       # number of WriteReq accesses(hits+misses)
system.cpu.dcache.WriteReq_accesses::total    119088905                       # number of WriteReq accesses(hits+misses)
system.cpu.dcache.WriteReq_miss_rate::.cpu.data     0.126616                       # miss rate for WriteReq accesses
system.cpu.dcache.WriteReq_miss_rate::.switch_cpus.data     0.361559                       # miss rate for WriteReq accesses
system.cpu.dcache.WriteReq_miss_rate::.switch_cpus_1.data     0.360052                       # miss rate for WriteReq accesses
system.cpu.dcache.WriteReq_miss_rate::total     0.167320                       # miss rate for WriteReq accesses
system.cpu.dcache.WriteReq_avg_miss_latency::.switch_cpus.data 25517.579672                       # average WriteReq miss latency
system.cpu.dcache.WriteReq_avg_miss_latency::.switch_cpus_1.data 25670.875403                       # average WriteReq miss latency
system.cpu.dcache.WriteReq_avg_miss_latency::total  9618.915939                       # average WriteReq miss latency
system.cpu.dcache.WriteReq_mshr_hits::.switch_cpus_1.data         4129                       # number of WriteReq MSHR hits
system.cpu.dcache.WriteReq_mshr_hits::total         4129                       # number of WriteReq MSHR hits
system.cpu.dcache.WriteReq_mshr_misses::.switch_cpus.data      1240154                       # number of WriteReq MSHR misses
system.cpu.dcache.WriteReq_mshr_misses::.switch_cpus_1.data      6229388                       # number of WriteReq MSHR misses
system.cpu.dcache.WriteReq_mshr_misses::total      7469542                       # number of WriteReq MSHR misses
system.cpu.dcache.WriteReq_mshr_miss_latency::.switch_cpus.data  30405574500                       # number of WriteReq MSHR miss cycles
system.cpu.dcache.WriteReq_mshr_miss_latency::.switch_cpus_1.data 153752720728                       # number of WriteReq MSHR miss cycles
system.cpu.dcache.WriteReq_mshr_miss_latency::total 184158295228                       # number of WriteReq MSHR miss cycles
system.cpu.dcache.WriteReq_mshr_miss_rate::.switch_cpus.data     0.361559                       # mshr miss rate for WriteReq accesses
system.cpu.dcache.WriteReq_mshr_miss_rate::.switch_cpus_1.data     0.359813                       # mshr miss rate for WriteReq accesses
system.cpu.dcache.WriteReq_mshr_miss_rate::total     0.062722                       # mshr miss rate for WriteReq accesses
system.cpu.dcache.WriteReq_avg_mshr_miss_latency::.switch_cpus.data 24517.579672                       # average WriteReq mshr miss latency
system.cpu.dcache.WriteReq_avg_mshr_miss_latency::.switch_cpus_1.data 24681.834031                       # average WriteReq mshr miss latency
system.cpu.dcache.WriteReq_avg_mshr_miss_latency::total 24654.563188                       # average WriteReq mshr miss latency
system.cpu.dcache.power_state.pwrStateResidencyTicks::UNDEFINED 2536848596000                       # Cumulative time (in ticks) in various power states
system.cpu.dcache.tags.tagsinuse           511.997082                       # Cycle average of tags in use
system.cpu.dcache.tags.total_refs           547888917                       # Total number of references to valid blocks.
system.cpu.dcache.tags.sampled_refs          85901747                       # Sample count of references to valid blocks.
system.cpu.dcache.tags.avg_refs              6.378088                       # Average number of references to valid blocks.
system.cpu.dcache.tags.warmup_cycle              1500                       # Cycle when the warmup percentage was hit.
system.cpu.dcache.tags.occ_blocks::.cpu.data   216.007998                       # Average occupied blocks per requestor
system.cpu.dcache.tags.occ_blocks::.switch_cpus.data   101.868914                       # Average occupied blocks per requestor
system.cpu.dcache.tags.occ_blocks::.switch_cpus_1.data   194.120170                       # Average occupied blocks per requestor
system.cpu.dcache.tags.occ_percent::.cpu.data     0.421891                       # Average percentage of cache occupancy
system.cpu.dcache.tags.occ_percent::.switch_cpus.data     0.198963                       # Average percentage of cache occupancy
system.cpu.dcache.tags.occ_percent::.switch_cpus_1.data     0.379141                       # Average percentage of cache occupancy
system.cpu.dcache.tags.occ_percent::total     0.999994                       # Average percentage of cache occupancy
system.cpu.dcache.tags.occ_task_id_blocks::1024          512                       # Occupied blocks per task id
system.cpu.dcache.tags.age_task_id_blocks_1024::0          153                       # Occupied blocks per task id
system.cpu.dcache.tags.age_task_id_blocks_1024::1          350                       # Occupied blocks per task id
system.cpu.dcache.tags.age_task_id_blocks_1024::2            8                       # Occupied blocks per task id
system.cpu.dcache.tags.age_task_id_blocks_1024::3            1                       # Occupied blocks per task id
system.cpu.dcache.tags.occ_task_id_percent::1024            1                       # Percentage of cache occupancy per task id
system.cpu.dcache.tags.tag_accesses        2428890791                       # Number of tag accesses
system.cpu.dcache.tags.data_accesses       2428890791                       # Number of data accesses
system.cpu.dcache.tags.power_state.pwrStateResidencyTicks::UNDEFINED 2536848596000                       # Cumulative time (in ticks) in various power states
system.cpu.power_state.numTransitions               2                       # Number of power state transitions
system.cpu.power_state.pwrStateResidencyTicks::ON 1070247845500                       # Cumulative time (in ticks) in various power states
system.cpu.power_state.pwrStateResidencyTicks::OFF 1466600750500                       # Cumulative time (in ticks) in various power states

---------- End Simulation Statistics   ----------
