
---------- Begin Simulation Statistics ----------
final_tick                               1427116490500                       # Number of ticks from beginning of simulation (restored from checkpoints and never reset)
host_inst_rate                                 458859                       # Simulator instruction rate (inst/s)
host_mem_usage                                4533052                       # Number of bytes of host memory used
host_op_rate                                   777450                       # Simulator op (including micro ops) rate (op/s)
host_seconds                                  2833.12                       # Real time elapsed on the host
host_tick_rate                               97497954                       # Simulator tick rate (ticks/s)
sim_freq                                 1000000000000                       # Frequency of simulated ticks
sim_insts                                  1300000002                       # Number of instructions simulated
sim_ops                                    2202605322                       # Number of ops (including micro ops) simulated
sim_seconds                                  0.276223                       # Number of seconds simulated
sim_ticks                                276222968750                       # Number of ticks simulated
system.cpu.committedInsts                           0                       # Number of instructions committed
system.cpu.committedOps                             0                       # Number of ops (including micro ops) committed
system.cpu.dtb.rdAccesses                           0                       # TLB accesses on read requests
system.cpu.dtb.rdMisses                             0                       # TLB misses on read requests
system.cpu.dtb.wrAccesses                           0                       # TLB accesses on write requests
system.cpu.dtb.wrMisses                             0                       # TLB misses on write requests
system.cpu.idle_fraction                            0                       # Percentage of idle cycles
system.cpu.itb.rdAccesses                           0                       # TLB accesses on read requests
system.cpu.itb.rdMisses                             0                       # TLB misses on read requests
system.cpu.itb.wrAccesses                           0                       # TLB accesses on write requests
system.cpu.itb.wrMisses                             0                       # TLB misses on write requests
system.cpu.not_idle_fraction                        1                       # Percentage of non-idle cycles
system.cpu.numCycles                                0                       # number of cpu cycles simulated
system.cpu.numWorkItemsCompleted                    0                       # number of work items this cpu completed
system.cpu.numWorkItemsStarted                      0                       # number of work items this cpu started
system.cpu.num_busy_cycles                          0                       # Number of busy cycles
system.cpu.num_conditional_control_insts            0                       # number of instructions that are conditional controls
system.cpu.num_fp_alu_accesses                      0                       # Number of float alu accesses
system.cpu.num_fp_insts                             0                       # number of float instructions
system.cpu.num_fp_register_reads                    0                       # number of times the floating registers were read
system.cpu.num_fp_register_writes                   0                       # number of times the floating registers were written
system.cpu.num_func_calls                           0                       # number of times a function call or return occured
system.cpu.num_idle_cycles                          0                       # Number of idle cycles
system.cpu.num_int_alu_accesses                     0                       # Number of integer alu accesses
system.cpu.num_int_insts                            0                       # number of integer instructions
system.cpu.num_int_register_reads                   0                       # number of times the integer registers were read
system.cpu.num_int_register_writes                  0                       # number of times the integer registers were written
system.cpu.num_load_insts                           0                       # Number of load instructions
system.cpu.num_mem_refs                             0                       # number of memory refs
system.cpu.num_store_insts                          0                       # Number of store instructions
system.cpu.num_vec_alu_accesses                     0                       # Number of vector alu accesses
system.cpu.num_vec_insts                            0                       # number of vector instructions
system.cpu.num_vec_register_reads                   0                       # number of times the vector registers were read
system.cpu.num_vec_register_writes                  0                       # number of times the vector registers were written
system.cpu.op_class::No_OpClass                     0                       # Class of executed instruction
system.cpu.op_class::IntAlu                         0                       # Class of executed instruction
system.cpu.op_class::IntMult                        0                       # Class of executed instruction
system.cpu.op_class::IntDiv                         0                       # Class of executed instruction
system.cpu.op_class::FloatAdd                       0                       # Class of executed instruction
system.cpu.op_class::FloatCmp                       0                       # Class of executed instruction
system.cpu.op_class::FloatCvt                       0                       # Class of executed instruction
system.cpu.op_class::FloatMult                      0                       # Class of executed instruction
system.cpu.op_class::FloatMultAcc                   0                       # Class of executed instruction
system.cpu.op_class::FloatDiv                       0                       # Class of executed instruction
system.cpu.op_class::FloatMisc                      0                       # Class of executed instruction
system.cpu.op_class::FloatSqrt                      0                       # Class of executed instruction
system.cpu.op_class::SimdAdd                        0                       # Class of executed instruction
system.cpu.op_class::SimdAddAcc                     0                       # Class of executed instruction
system.cpu.op_class::SimdAlu                        0                       # Class of executed instruction
system.cpu.op_class::SimdCmp                        0                       # Class of executed instruction
system.cpu.op_class::SimdCvt                        0                       # Class of executed instruction
system.cpu.op_class::SimdMisc                       0                       # Class of executed instruction
system.cpu.op_class::SimdMult                       0                       # Class of executed instruction
system.cpu.op_class::SimdMultAcc                    0                       # Class of executed instruction
system.cpu.op_class::SimdShift                      0                       # Class of executed instruction
system.cpu.op_class::SimdShiftAcc                   0                       # Class of executed instruction
system.cpu.op_class::SimdDiv                        0                       # Class of executed instruction
system.cpu.op_class::SimdSqrt                       0                       # Class of executed instruction
system.cpu.op_class::SimdFloatAdd                   0                       # Class of executed instruction
system.cpu.op_class::SimdFloatAlu                   0                       # Class of executed instruction
system.cpu.op_class::SimdFloatCmp                   0                       # Class of executed instruction
system.cpu.op_class::SimdFloatCvt                   0                       # Class of executed instruction
system.cpu.op_class::SimdFloatDiv                   0                       # Class of executed instruction
system.cpu.op_class::SimdFloatMisc                  0                       # Class of executed instruction
system.cpu.op_class::SimdFloatMult                  0                       # Class of executed instruction
system.cpu.op_class::SimdFloatMultAcc               0                       # Class of executed instruction
system.cpu.op_class::SimdFloatSqrt                  0                       # Class of executed instruction
system.cpu.op_class::SimdReduceAdd                  0                       # Class of executed instruction
system.cpu.op_class::SimdReduceAlu                  0                       # Class of executed instruction
system.cpu.op_class::SimdReduceCmp                  0                       # Class of executed instruction
system.cpu.op_class::SimdFloatReduceAdd             0                       # Class of executed instruction
system.cpu.op_class::SimdFloatReduceCmp             0                       # Class of executed instruction
system.cpu.op_class::SimdAes                        0                       # Class of executed instruction
system.cpu.op_class::SimdAesMix                     0                       # Class of executed instruction
system.cpu.op_class::SimdSha1Hash                   0                       # Class of executed instruction
system.cpu.op_class::SimdSha1Hash2                  0                       # Class of executed instruction
system.cpu.op_class::SimdSha256Hash                 0                       # Class of executed instruction
system.cpu.op_class::SimdSha256Hash2                0                       # Class of executed instruction
system.cpu.op_class::SimdShaSigma2                  0                       # Class of executed instruction
system.cpu.op_class::SimdShaSigma3                  0                       # Class of executed instruction
system.cpu.op_class::SimdPredAlu                    0                       # Class of executed instruction
system.cpu.op_class::MemRead                        0                       # Class of executed instruction
system.cpu.op_class::MemWrite                       0                       # Class of executed instruction
system.cpu.op_class::FloatMemRead                   0                       # Class of executed instruction
system.cpu.op_class::FloatMemWrite                  0                       # Class of executed instruction
system.cpu.op_class::IprAccess                      0                       # Class of executed instruction
system.cpu.op_class::InstPrefetch                   0                       # Class of executed instruction
system.cpu.op_class::total                          0                       # Class of executed instruction
system.cpu.workload.numSyscalls                     0                       # Number of system calls
system.membus.snoop_filter.hit_multi_requests            0                       # Number of requests hitting in the snoop filter with multiple (>1) holders of the requested data.
system.membus.snoop_filter.hit_multi_snoops            0                       # Number of snoops hitting in the snoop filter with multiple (>1) holders of the requested data.
system.membus.snoop_filter.hit_single_requests      2370636                       # Number of requests hitting in the snoop filter with a single holder of the requested data.
system.membus.snoop_filter.hit_single_snoops            0                       # Number of snoops hitting in the snoop filter with a single holder of the requested data.
system.membus.snoop_filter.tot_requests       4740650                       # Total number of requests made to the snoop filter.
system.membus.snoop_filter.tot_snoops               0                       # Total number of snoops made to the snoop filter.
system.switch_cpus.committedInsts                   0                       # Number of instructions committed
system.switch_cpus.committedOps                     0                       # Number of ops (including micro ops) committed
system.switch_cpus.dtb.rdAccesses                   0                       # TLB accesses on read requests
system.switch_cpus.dtb.rdMisses                     0                       # TLB misses on read requests
system.switch_cpus.dtb.wrAccesses                   0                       # TLB accesses on write requests
system.switch_cpus.dtb.wrMisses                     0                       # TLB misses on write requests
system.switch_cpus.idle_fraction                    0                       # Percentage of idle cycles
system.switch_cpus.itb.rdAccesses                   0                       # TLB accesses on read requests
system.switch_cpus.itb.rdMisses                     0                       # TLB misses on read requests
system.switch_cpus.itb.wrAccesses                   0                       # TLB accesses on write requests
system.switch_cpus.itb.wrMisses                     0                       # TLB misses on write requests
system.switch_cpus.not_idle_fraction                1                       # Percentage of non-idle cycles
system.switch_cpus.numCycles                        0                       # number of cpu cycles simulated
system.switch_cpus.numWorkItemsCompleted            0                       # number of work items this cpu completed
system.switch_cpus.numWorkItemsStarted              0                       # number of work items this cpu started
system.switch_cpus.num_busy_cycles                  0                       # Number of busy cycles
system.switch_cpus.num_conditional_control_insts            0                       # number of instructions that are conditional controls
system.switch_cpus.num_fp_alu_accesses              0                       # Number of float alu accesses
system.switch_cpus.num_fp_insts                     0                       # number of float instructions
system.switch_cpus.num_fp_register_reads            0                       # number of times the floating registers were read
system.switch_cpus.num_fp_register_writes            0                       # number of times the floating registers were written
system.switch_cpus.num_func_calls                   0                       # number of times a function call or return occured
system.switch_cpus.num_idle_cycles                  0                       # Number of idle cycles
system.switch_cpus.num_int_alu_accesses             0                       # Number of integer alu accesses
system.switch_cpus.num_int_insts                    0                       # number of integer instructions
system.switch_cpus.num_int_register_reads            0                       # number of times the integer registers were read
system.switch_cpus.num_int_register_writes            0                       # number of times the integer registers were written
system.switch_cpus.num_load_insts                   0                       # Number of load instructions
system.switch_cpus.num_mem_refs                     0                       # number of memory refs
system.switch_cpus.num_store_insts                  0                       # Number of store instructions
system.switch_cpus.num_vec_alu_accesses             0                       # Number of vector alu accesses
system.switch_cpus.num_vec_insts                    0                       # number of vector instructions
system.switch_cpus.num_vec_register_reads            0                       # number of times the vector registers were read
system.switch_cpus.num_vec_register_writes            0                       # number of times the vector registers were written
system.switch_cpus.op_class::No_OpClass             0                       # Class of executed instruction
system.switch_cpus.op_class::IntAlu                 0                       # Class of executed instruction
system.switch_cpus.op_class::IntMult                0                       # Class of executed instruction
system.switch_cpus.op_class::IntDiv                 0                       # Class of executed instruction
system.switch_cpus.op_class::FloatAdd               0                       # Class of executed instruction
system.switch_cpus.op_class::FloatCmp               0                       # Class of executed instruction
system.switch_cpus.op_class::FloatCvt               0                       # Class of executed instruction
system.switch_cpus.op_class::FloatMult              0                       # Class of executed instruction
system.switch_cpus.op_class::FloatMultAcc            0                       # Class of executed instruction
system.switch_cpus.op_class::FloatDiv               0                       # Class of executed instruction
system.switch_cpus.op_class::FloatMisc              0                       # Class of executed instruction
system.switch_cpus.op_class::FloatSqrt              0                       # Class of executed instruction
system.switch_cpus.op_class::SimdAdd                0                       # Class of executed instruction
system.switch_cpus.op_class::SimdAddAcc             0                       # Class of executed instruction
system.switch_cpus.op_class::SimdAlu                0                       # Class of executed instruction
system.switch_cpus.op_class::SimdCmp                0                       # Class of executed instruction
system.switch_cpus.op_class::SimdCvt                0                       # Class of executed instruction
system.switch_cpus.op_class::SimdMisc               0                       # Class of executed instruction
system.switch_cpus.op_class::SimdMult               0                       # Class of executed instruction
system.switch_cpus.op_class::SimdMultAcc            0                       # Class of executed instruction
system.switch_cpus.op_class::SimdShift              0                       # Class of executed instruction
system.switch_cpus.op_class::SimdShiftAcc            0                       # Class of executed instruction
system.switch_cpus.op_class::SimdDiv                0                       # Class of executed instruction
system.switch_cpus.op_class::SimdSqrt               0                       # Class of executed instruction
system.switch_cpus.op_class::SimdFloatAdd            0                       # Class of executed instruction
system.switch_cpus.op_class::SimdFloatAlu            0                       # Class of executed instruction
system.switch_cpus.op_class::SimdFloatCmp            0                       # Class of executed instruction
system.switch_cpus.op_class::SimdFloatCvt            0                       # Class of executed instruction
system.switch_cpus.op_class::SimdFloatDiv            0                       # Class of executed instruction
system.switch_cpus.op_class::SimdFloatMisc            0                       # Class of executed instruction
system.switch_cpus.op_class::SimdFloatMult            0                       # Class of executed instruction
system.switch_cpus.op_class::SimdFloatMultAcc            0                       # Class of executed instruction
system.switch_cpus.op_class::SimdFloatSqrt            0                       # Class of executed instruction
system.switch_cpus.op_class::SimdReduceAdd            0                       # Class of executed instruction
system.switch_cpus.op_class::SimdReduceAlu            0                       # Class of executed instruction
system.switch_cpus.op_class::SimdReduceCmp            0                       # Class of executed instruction
system.switch_cpus.op_class::SimdFloatReduceAdd            0                       # Class of executed instruction
system.switch_cpus.op_class::SimdFloatReduceCmp            0                       # Class of executed instruction
system.switch_cpus.op_class::SimdAes                0                       # Class of executed instruction
system.switch_cpus.op_class::SimdAesMix             0                       # Class of executed instruction
system.switch_cpus.op_class::SimdSha1Hash            0                       # Class of executed instruction
system.switch_cpus.op_class::SimdSha1Hash2            0                       # Class of executed instruction
system.switch_cpus.op_class::SimdSha256Hash            0                       # Class of executed instruction
system.switch_cpus.op_class::SimdSha256Hash2            0                       # Class of executed instruction
system.switch_cpus.op_class::SimdShaSigma2            0                       # Class of executed instruction
system.switch_cpus.op_class::SimdShaSigma3            0                       # Class of executed instruction
system.switch_cpus.op_class::SimdPredAlu            0                       # Class of executed instruction
system.switch_cpus.op_class::MemRead                0                       # Class of executed instruction
system.switch_cpus.op_class::MemWrite               0                       # Class of executed instruction
system.switch_cpus.op_class::FloatMemRead            0                       # Class of executed instruction
system.switch_cpus.op_class::FloatMemWrite            0                       # Class of executed instruction
system.switch_cpus.op_class::IprAccess              0                       # Class of executed instruction
system.switch_cpus.op_class::InstPrefetch            0                       # Class of executed instruction
system.switch_cpus.op_class::total                  0                       # Class of executed instruction
system.switch_cpus_1.branchPred.BTBCorrect            0                       # Number of correct BTB predictions (this stat may not work properly.
system.switch_cpus_1.branchPred.BTBHitPct          nan                       # BTB Hit Percentage
system.switch_cpus_1.branchPred.BTBHits             0                       # Number of BTB hits
system.switch_cpus_1.branchPred.BTBLookups            0                       # Number of BTB lookups
system.switch_cpus_1.branchPred.RASInCorrect           40                       # Number of incorrect RAS predictions.
system.switch_cpus_1.branchPred.condIncorrect      8303938                       # Number of conditional branches incorrect
system.switch_cpus_1.branchPred.condPredicted     85235044                       # Number of conditional branches predicted
system.switch_cpus_1.branchPred.indirectHits     29787654                       # Number of indirect target hits.
system.switch_cpus_1.branchPred.indirectLookups     51418857                       # Number of indirect predictor lookups.
system.switch_cpus_1.branchPred.indirectMisses     21631203                       # Number of indirect misses.
system.switch_cpus_1.branchPred.lookups      92668574                       # Number of BP lookups
system.switch_cpus_1.branchPred.usedRAS       2630970                       # Number of times the RAS was used to get a target.
system.switch_cpus_1.branchPredindirectMispredicted      4789767                       # Number of mispredicted indirect branches.
system.switch_cpus_1.cc_regfile_reads       260639283                       # number of cc regfile reads
system.switch_cpus_1.cc_regfile_writes      227214527                       # number of cc regfile writes
system.switch_cpus_1.commit.amos                    0                       # Number of atomic instructions committed
system.switch_cpus_1.commit.branchMispredicts      8304382                       # The number of times a branch was mispredicted
system.switch_cpus_1.commit.branches         39490398                       # Number of branches committed
system.switch_cpus_1.commit.bw_lim_events     23024712                       # number cycles where commit BW limit reached
system.switch_cpus_1.commit.commitSquashedInsts    334478872                       # The number of squashed insts skipped by commit
system.switch_cpus_1.commit.committedInsts    250000000                       # Number of instructions committed
system.switch_cpus_1.commit.committedOps    421666923                       # Number of ops (including micro ops) committed
system.switch_cpus_1.commit.committed_per_cycle::samples    502713563                       # Number of insts commited each cycle
system.switch_cpus_1.commit.committed_per_cycle::mean     0.838782                       # Number of insts commited each cycle
system.switch_cpus_1.commit.committed_per_cycle::stdev     1.936927                       # Number of insts commited each cycle
system.switch_cpus_1.commit.committed_per_cycle::underflows            0      0.00%      0.00% # Number of insts commited each cycle
system.switch_cpus_1.commit.committed_per_cycle::0    370336812     73.67%     73.67% # Number of insts commited each cycle
system.switch_cpus_1.commit.committed_per_cycle::1     54184032     10.78%     84.45% # Number of insts commited each cycle
system.switch_cpus_1.commit.committed_per_cycle::2     17415706      3.46%     87.91% # Number of insts commited each cycle
system.switch_cpus_1.commit.committed_per_cycle::3     19312410      3.84%     91.75% # Number of insts commited each cycle
system.switch_cpus_1.commit.committed_per_cycle::4     10037693      2.00%     93.75% # Number of insts commited each cycle
system.switch_cpus_1.commit.committed_per_cycle::5      3001823      0.60%     94.35% # Number of insts commited each cycle
system.switch_cpus_1.commit.committed_per_cycle::6      2445959      0.49%     94.83% # Number of insts commited each cycle
system.switch_cpus_1.commit.committed_per_cycle::7      2954416      0.59%     95.42% # Number of insts commited each cycle
system.switch_cpus_1.commit.committed_per_cycle::8     23024712      4.58%    100.00% # Number of insts commited each cycle
system.switch_cpus_1.commit.committed_per_cycle::overflows            0      0.00%    100.00% # Number of insts commited each cycle
system.switch_cpus_1.commit.committed_per_cycle::min_value            0                       # Number of insts commited each cycle
system.switch_cpus_1.commit.committed_per_cycle::max_value            8                       # Number of insts commited each cycle
system.switch_cpus_1.commit.committed_per_cycle::total    502713563                       # Number of insts commited each cycle
system.switch_cpus_1.commit.fp_insts                0                       # Number of committed floating point instructions.
system.switch_cpus_1.commit.function_calls      1582586                       # Number of function calls committed.
system.switch_cpus_1.commit.int_insts       421288661                       # Number of committed integer instructions.
system.switch_cpus_1.commit.loads            79739106                       # Number of loads committed
system.switch_cpus_1.commit.membars                 0                       # Number of memory barriers committed
system.switch_cpus_1.commit.op_class_0::No_OpClass       378161      0.09%      0.09% # Class of committed instruction
system.switch_cpus_1.commit.op_class_0::IntAlu    318830200     75.61%     75.70% # Class of committed instruction
system.switch_cpus_1.commit.op_class_0::IntMult           65      0.00%     75.70% # Class of committed instruction
system.switch_cpus_1.commit.op_class_0::IntDiv          135      0.00%     75.70% # Class of committed instruction
system.switch_cpus_1.commit.op_class_0::FloatAdd            0      0.00%     75.70% # Class of committed instruction
system.switch_cpus_1.commit.op_class_0::FloatCmp            0      0.00%     75.70% # Class of committed instruction
system.switch_cpus_1.commit.op_class_0::FloatCvt            0      0.00%     75.70% # Class of committed instruction
system.switch_cpus_1.commit.op_class_0::FloatMult            0      0.00%     75.70% # Class of committed instruction
system.switch_cpus_1.commit.op_class_0::FloatMultAcc            0      0.00%     75.70% # Class of committed instruction
system.switch_cpus_1.commit.op_class_0::FloatDiv            0      0.00%     75.70% # Class of committed instruction
system.switch_cpus_1.commit.op_class_0::FloatMisc            0      0.00%     75.70% # Class of committed instruction
system.switch_cpus_1.commit.op_class_0::FloatSqrt            0      0.00%     75.70% # Class of committed instruction
system.switch_cpus_1.commit.op_class_0::SimdAdd            0      0.00%     75.70% # Class of committed instruction
system.switch_cpus_1.commit.op_class_0::SimdAddAcc            0      0.00%     75.70% # Class of committed instruction
system.switch_cpus_1.commit.op_class_0::SimdAlu            0      0.00%     75.70% # Class of committed instruction
system.switch_cpus_1.commit.op_class_0::SimdCmp            0      0.00%     75.70% # Class of committed instruction
system.switch_cpus_1.commit.op_class_0::SimdCvt            0      0.00%     75.70% # Class of committed instruction
system.switch_cpus_1.commit.op_class_0::SimdMisc            0      0.00%     75.70% # Class of committed instruction
system.switch_cpus_1.commit.op_class_0::SimdMult            0      0.00%     75.70% # Class of committed instruction
system.switch_cpus_1.commit.op_class_0::SimdMultAcc            0      0.00%     75.70% # Class of committed instruction
system.switch_cpus_1.commit.op_class_0::SimdShift            0      0.00%     75.70% # Class of committed instruction
system.switch_cpus_1.commit.op_class_0::SimdShiftAcc            0      0.00%     75.70% # Class of committed instruction
system.switch_cpus_1.commit.op_class_0::SimdDiv            0      0.00%     75.70% # Class of committed instruction
system.switch_cpus_1.commit.op_class_0::SimdSqrt            0      0.00%     75.70% # Class of committed instruction
system.switch_cpus_1.commit.op_class_0::SimdFloatAdd            0      0.00%     75.70% # Class of committed instruction
system.switch_cpus_1.commit.op_class_0::SimdFloatAlu            0      0.00%     75.70% # Class of committed instruction
system.switch_cpus_1.commit.op_class_0::SimdFloatCmp            0      0.00%     75.70% # Class of committed instruction
system.switch_cpus_1.commit.op_class_0::SimdFloatCvt            0      0.00%     75.70% # Class of committed instruction
system.switch_cpus_1.commit.op_class_0::SimdFloatDiv            0      0.00%     75.70% # Class of committed instruction
system.switch_cpus_1.commit.op_class_0::SimdFloatMisc            0      0.00%     75.70% # Class of committed instruction
system.switch_cpus_1.commit.op_class_0::SimdFloatMult            0      0.00%     75.70% # Class of committed instruction
system.switch_cpus_1.commit.op_class_0::SimdFloatMultAcc            0      0.00%     75.70% # Class of committed instruction
system.switch_cpus_1.commit.op_class_0::SimdFloatSqrt            0      0.00%     75.70% # Class of committed instruction
system.switch_cpus_1.commit.op_class_0::SimdReduceAdd            0      0.00%     75.70% # Class of committed instruction
system.switch_cpus_1.commit.op_class_0::SimdReduceAlu            0      0.00%     75.70% # Class of committed instruction
system.switch_cpus_1.commit.op_class_0::SimdReduceCmp            0      0.00%     75.70% # Class of committed instruction
system.switch_cpus_1.commit.op_class_0::SimdFloatReduceAdd            0      0.00%     75.70% # Class of committed instruction
system.switch_cpus_1.commit.op_class_0::SimdFloatReduceCmp            0      0.00%     75.70% # Class of committed instruction
system.switch_cpus_1.commit.op_class_0::SimdAes            0      0.00%     75.70% # Class of committed instruction
system.switch_cpus_1.commit.op_class_0::SimdAesMix            0      0.00%     75.70% # Class of committed instruction
system.switch_cpus_1.commit.op_class_0::SimdSha1Hash            0      0.00%     75.70% # Class of committed instruction
system.switch_cpus_1.commit.op_class_0::SimdSha1Hash2            0      0.00%     75.70% # Class of committed instruction
system.switch_cpus_1.commit.op_class_0::SimdSha256Hash            0      0.00%     75.70% # Class of committed instruction
system.switch_cpus_1.commit.op_class_0::SimdSha256Hash2            0      0.00%     75.70% # Class of committed instruction
system.switch_cpus_1.commit.op_class_0::SimdShaSigma2            0      0.00%     75.70% # Class of committed instruction
system.switch_cpus_1.commit.op_class_0::SimdShaSigma3            0      0.00%     75.70% # Class of committed instruction
system.switch_cpus_1.commit.op_class_0::SimdPredAlu            0      0.00%     75.70% # Class of committed instruction
system.switch_cpus_1.commit.op_class_0::MemRead     79739106     18.91%     94.61% # Class of committed instruction
system.switch_cpus_1.commit.op_class_0::MemWrite     22719256      5.39%    100.00% # Class of committed instruction
system.switch_cpus_1.commit.op_class_0::FloatMemRead            0      0.00%    100.00% # Class of committed instruction
system.switch_cpus_1.commit.op_class_0::FloatMemWrite            0      0.00%    100.00% # Class of committed instruction
system.switch_cpus_1.commit.op_class_0::IprAccess            0      0.00%    100.00% # Class of committed instruction
system.switch_cpus_1.commit.op_class_0::InstPrefetch            0      0.00%    100.00% # Class of committed instruction
system.switch_cpus_1.commit.op_class_0::total    421666923                       # Class of committed instruction
system.switch_cpus_1.commit.refs            102458362                       # Number of memory references committed
system.switch_cpus_1.commit.swp_count               0                       # Number of s/w prefetches committed
system.switch_cpus_1.commit.vec_insts               0                       # Number of committed Vector instructions.
system.switch_cpus_1.committedInsts         250000000                       # Number of Instructions Simulated
system.switch_cpus_1.committedOps           421666923                       # Number of Ops (including micro ops) Simulated
system.switch_cpus_1.cpi                     2.209784                       # CPI: Cycles Per Instruction
system.switch_cpus_1.cpi_total               2.209784                       # CPI: Total CPI of All Threads
system.switch_cpus_1.decode.BlockedCycles    370181062                       # Number of cycles decode is blocked
system.switch_cpus_1.decode.DecodedInsts    875999890                       # Number of instructions handled by decode
system.switch_cpus_1.decode.IdleCycles       50405230                       # Number of cycles decode is idle
system.switch_cpus_1.decode.RunCycles       100169118                       # Number of cycles decode is running
system.switch_cpus_1.decode.SquashCycles      8332112                       # Number of cycles decode is squashing
system.switch_cpus_1.decode.UnblockCycles     23347865                       # Number of cycles decode is unblocking
system.switch_cpus_1.dtb.rdAccesses         115727430                       # TLB accesses on read requests
system.switch_cpus_1.dtb.rdMisses             1247659                       # TLB misses on read requests
system.switch_cpus_1.dtb.wrAccesses          30143932                       # TLB accesses on write requests
system.switch_cpus_1.dtb.wrMisses              362937                       # TLB misses on write requests
system.switch_cpus_1.fetch.Branches          92668574                       # Number of branches that fetch encountered
system.switch_cpus_1.fetch.CacheLines        64206448                       # Number of cache lines fetched
system.switch_cpus_1.fetch.Cycles           474567178                       # Number of cycles fetch has run and was not squashing or blocked
system.switch_cpus_1.fetch.IcacheSquashes      1877432                       # Number of outstanding Icache misses that were squashed
system.switch_cpus_1.fetch.Insts            580255051                       # Number of instructions fetch has processed
system.switch_cpus_1.fetch.MiscStallCycles          443                       # Number of cycles fetch has spent waiting on interrupts, or bad addresses, or out of MSHRs
system.switch_cpus_1.fetch.PendingTrapStallCycles         9066                       # Number of stall cycles due to pending traps
system.switch_cpus_1.fetch.SquashCycles      16664224                       # Number of cycles fetch has spent squashing
system.switch_cpus_1.fetch.branchRate        0.167742                       # Number of branch fetches per cycle
system.switch_cpus_1.fetch.icacheStallCycles     69526605                       # Number of cycles fetch is stalled on an Icache miss
system.switch_cpus_1.fetch.predictedBranches     32418624                       # Number of branches that fetch has predicted taken
system.switch_cpus_1.fetch.rate              1.050338                       # Number of inst fetches per cycle
system.switch_cpus_1.fetch.rateDist::samples    552435404                       # Number of instructions fetched each cycle (Total)
system.switch_cpus_1.fetch.rateDist::mean     1.741602                       # Number of instructions fetched each cycle (Total)
system.switch_cpus_1.fetch.rateDist::stdev     3.061882                       # Number of instructions fetched each cycle (Total)
system.switch_cpus_1.fetch.rateDist::underflows            0      0.00%      0.00% # Number of instructions fetched each cycle (Total)
system.switch_cpus_1.fetch.rateDist::0      396711905     71.81%     71.81% # Number of instructions fetched each cycle (Total)
system.switch_cpus_1.fetch.rateDist::1        8723462      1.58%     73.39% # Number of instructions fetched each cycle (Total)
system.switch_cpus_1.fetch.rateDist::2       13107279      2.37%     75.76% # Number of instructions fetched each cycle (Total)
system.switch_cpus_1.fetch.rateDist::3        9117726      1.65%     77.41% # Number of instructions fetched each cycle (Total)
system.switch_cpus_1.fetch.rateDist::4        8540909      1.55%     78.96% # Number of instructions fetched each cycle (Total)
system.switch_cpus_1.fetch.rateDist::5       14209280      2.57%     81.53% # Number of instructions fetched each cycle (Total)
system.switch_cpus_1.fetch.rateDist::6        6878513      1.25%     82.78% # Number of instructions fetched each cycle (Total)
system.switch_cpus_1.fetch.rateDist::7        7820580      1.42%     84.19% # Number of instructions fetched each cycle (Total)
system.switch_cpus_1.fetch.rateDist::8       87325750     15.81%    100.00% # Number of instructions fetched each cycle (Total)
system.switch_cpus_1.fetch.rateDist::overflows            0      0.00%    100.00% # Number of instructions fetched each cycle (Total)
system.switch_cpus_1.fetch.rateDist::min_value            0                       # Number of instructions fetched each cycle (Total)
system.switch_cpus_1.fetch.rateDist::max_value            8                       # Number of instructions fetched each cycle (Total)
system.switch_cpus_1.fetch.rateDist::total    552435404                       # Number of instructions fetched each cycle (Total)
system.switch_cpus_1.fp_regfile_reads          121561                       # number of floating regfile reads
system.switch_cpus_1.fp_regfile_writes          78657                       # number of floating regfile writes
system.switch_cpus_1.idleCycles                 10533                       # Total number of cycles that the CPU has spent unscheduled due to idling
system.switch_cpus_1.iew.branchMispredicts      9956593                       # Number of branch mispredicts detected at execute
system.switch_cpus_1.iew.exec_branches       52371331                       # Number of branches executed
system.switch_cpus_1.iew.exec_nop                   0                       # number of nop insts executed
system.switch_cpus_1.iew.exec_rate           1.137996                       # Inst execution rate
system.switch_cpus_1.iew.exec_refs          149584469                       # number of memory reference insts executed
system.switch_cpus_1.iew.exec_stores         30140935                       # Number of stores executed
system.switch_cpus_1.iew.exec_swp                   0                       # number of swp insts executed
system.switch_cpus_1.iew.iewBlockCycles      89737039                       # Number of cycles IEW is blocking
system.switch_cpus_1.iew.iewDispLoadInsts    142400266                       # Number of dispatched load instructions
system.switch_cpus_1.iew.iewDispNonSpecInsts            0                       # Number of dispatched non-speculative instructions
system.switch_cpus_1.iew.iewDispSquashedInsts       714898                       # Number of squashed instructions skipped by dispatch
system.switch_cpus_1.iew.iewDispStoreInsts     44435987                       # Number of dispatched store instructions
system.switch_cpus_1.iew.iewDispatchedInsts    756014762                       # Number of instructions dispatched to IQ
system.switch_cpus_1.iew.iewExecLoadInsts    119443534                       # Number of load instructions executed
system.switch_cpus_1.iew.iewExecSquashedInsts     20133136                       # Number of squashed instructions skipped in execute
system.switch_cpus_1.iew.iewExecutedInsts    628681020                       # Number of executed instructions
system.switch_cpus_1.iew.iewIQFullEvents       658156                       # Number of times the IQ has become full, causing a stall
system.switch_cpus_1.iew.iewIdleCycles              0                       # Number of cycles IEW is idle
system.switch_cpus_1.iew.iewLSQFullEvents     54210252                       # Number of times the LSQ has become full, causing a stall
system.switch_cpus_1.iew.iewSquashCycles      8332112                       # Number of cycles IEW is squashing
system.switch_cpus_1.iew.iewUnblockCycles     55457046                       # Number of cycles IEW is unblocking
system.switch_cpus_1.iew.lsq.thread0.blockedLoads            0                       # Number of blocked loads due to partial load-store forwarding
system.switch_cpus_1.iew.lsq.thread0.cacheBlocked      1188358                       # Number of times an access to memory failed due to the cache being blocked
system.switch_cpus_1.iew.lsq.thread0.forwLoads      8242344                       # Number of loads that had data forwarded from stores
system.switch_cpus_1.iew.lsq.thread0.ignoredResponses        43706                       # Number of memory responses ignored because the instruction is squashed
system.switch_cpus_1.iew.lsq.thread0.invAddrLoads            0                       # Number of loads ignored due to an invalid address
system.switch_cpus_1.iew.lsq.thread0.invAddrSwpfs            0                       # Number of software prefetches ignored due to an invalid address
system.switch_cpus_1.iew.lsq.thread0.memOrderViolation        35113                       # Number of memory ordering violations
system.switch_cpus_1.iew.lsq.thread0.rescheduledLoads        54098                       # Number of loads that were rescheduled
system.switch_cpus_1.iew.lsq.thread0.squashedLoads     62661156                       # Number of loads squashed
system.switch_cpus_1.iew.lsq.thread0.squashedStores     21716730                       # Number of stores squashed
system.switch_cpus_1.iew.memOrderViolationEvents        35113                       # Number of memory order violations
system.switch_cpus_1.iew.predictedNotTakenIncorrect      8891673                       # Number of branches that were predicted not taken incorrectly
system.switch_cpus_1.iew.predictedTakenIncorrect      1064920                       # Number of branches that were predicted taken incorrectly
system.switch_cpus_1.iew.wb_consumers       706835440                       # num instructions consuming a value
system.switch_cpus_1.iew.wb_count           611743453                       # cumulative count of insts written-back
system.switch_cpus_1.iew.wb_fanout           0.666412                       # average fanout of values written-back
system.switch_cpus_1.iew.wb_producers       471043376                       # num instructions producing a value
system.switch_cpus_1.iew.wb_rate             1.107336                       # insts written-back per cycle
system.switch_cpus_1.iew.wb_sent            615736191                       # cumulative count of insts sent to commit
system.switch_cpus_1.int_regfile_reads      980896476                       # number of integer regfile reads
system.switch_cpus_1.int_regfile_writes     530955100                       # number of integer regfile writes
system.switch_cpus_1.ipc                     0.452533                       # IPC: Instructions Per Cycle
system.switch_cpus_1.ipc_total               0.452533                       # IPC: Total IPC of All Threads
system.switch_cpus_1.iq.FU_type_0::No_OpClass      1627712      0.25%      0.25% # Type of FU issued
system.switch_cpus_1.iq.FU_type_0::IntAlu    489903613     75.51%     75.76% # Type of FU issued
system.switch_cpus_1.iq.FU_type_0::IntMult           80      0.00%     75.76% # Type of FU issued
system.switch_cpus_1.iq.FU_type_0::IntDiv          135      0.00%     75.76% # Type of FU issued
system.switch_cpus_1.iq.FU_type_0::FloatAdd            0      0.00%     75.76% # Type of FU issued
system.switch_cpus_1.iq.FU_type_0::FloatCmp            0      0.00%     75.76% # Type of FU issued
system.switch_cpus_1.iq.FU_type_0::FloatCvt         5724      0.00%     75.76% # Type of FU issued
system.switch_cpus_1.iq.FU_type_0::FloatMult            0      0.00%     75.76% # Type of FU issued
system.switch_cpus_1.iq.FU_type_0::FloatMultAcc            0      0.00%     75.76% # Type of FU issued
system.switch_cpus_1.iq.FU_type_0::FloatDiv            0      0.00%     75.76% # Type of FU issued
system.switch_cpus_1.iq.FU_type_0::FloatMisc            0      0.00%     75.76% # Type of FU issued
system.switch_cpus_1.iq.FU_type_0::FloatSqrt            0      0.00%     75.76% # Type of FU issued
system.switch_cpus_1.iq.FU_type_0::SimdAdd            0      0.00%     75.76% # Type of FU issued
system.switch_cpus_1.iq.FU_type_0::SimdAddAcc            0      0.00%     75.76% # Type of FU issued
system.switch_cpus_1.iq.FU_type_0::SimdAlu            0      0.00%     75.76% # Type of FU issued
system.switch_cpus_1.iq.FU_type_0::SimdCmp            0      0.00%     75.76% # Type of FU issued
system.switch_cpus_1.iq.FU_type_0::SimdCvt            0      0.00%     75.76% # Type of FU issued
system.switch_cpus_1.iq.FU_type_0::SimdMisc       105227      0.02%     75.78% # Type of FU issued
system.switch_cpus_1.iq.FU_type_0::SimdMult            0      0.00%     75.78% # Type of FU issued
system.switch_cpus_1.iq.FU_type_0::SimdMultAcc            0      0.00%     75.78% # Type of FU issued
system.switch_cpus_1.iq.FU_type_0::SimdShift            0      0.00%     75.78% # Type of FU issued
system.switch_cpus_1.iq.FU_type_0::SimdShiftAcc            0      0.00%     75.78% # Type of FU issued
system.switch_cpus_1.iq.FU_type_0::SimdDiv            0      0.00%     75.78% # Type of FU issued
system.switch_cpus_1.iq.FU_type_0::SimdSqrt            0      0.00%     75.78% # Type of FU issued
system.switch_cpus_1.iq.FU_type_0::SimdFloatAdd            0      0.00%     75.78% # Type of FU issued
system.switch_cpus_1.iq.FU_type_0::SimdFloatAlu            0      0.00%     75.78% # Type of FU issued
system.switch_cpus_1.iq.FU_type_0::SimdFloatCmp            0      0.00%     75.78% # Type of FU issued
system.switch_cpus_1.iq.FU_type_0::SimdFloatCvt        40015      0.01%     75.78% # Type of FU issued
system.switch_cpus_1.iq.FU_type_0::SimdFloatDiv            0      0.00%     75.78% # Type of FU issued
system.switch_cpus_1.iq.FU_type_0::SimdFloatMisc            0      0.00%     75.78% # Type of FU issued
system.switch_cpus_1.iq.FU_type_0::SimdFloatMult            0      0.00%     75.78% # Type of FU issued
system.switch_cpus_1.iq.FU_type_0::SimdFloatMultAcc            0      0.00%     75.78% # Type of FU issued
system.switch_cpus_1.iq.FU_type_0::SimdFloatSqrt            0      0.00%     75.78% # Type of FU issued
system.switch_cpus_1.iq.FU_type_0::SimdReduceAdd            0      0.00%     75.78% # Type of FU issued
system.switch_cpus_1.iq.FU_type_0::SimdReduceAlu            0      0.00%     75.78% # Type of FU issued
system.switch_cpus_1.iq.FU_type_0::SimdReduceCmp            0      0.00%     75.78% # Type of FU issued
system.switch_cpus_1.iq.FU_type_0::SimdFloatReduceAdd            0      0.00%     75.78% # Type of FU issued
system.switch_cpus_1.iq.FU_type_0::SimdFloatReduceCmp            0      0.00%     75.78% # Type of FU issued
system.switch_cpus_1.iq.FU_type_0::SimdAes            0      0.00%     75.78% # Type of FU issued
system.switch_cpus_1.iq.FU_type_0::SimdAesMix            0      0.00%     75.78% # Type of FU issued
system.switch_cpus_1.iq.FU_type_0::SimdSha1Hash            0      0.00%     75.78% # Type of FU issued
system.switch_cpus_1.iq.FU_type_0::SimdSha1Hash2            0      0.00%     75.78% # Type of FU issued
system.switch_cpus_1.iq.FU_type_0::SimdSha256Hash            0      0.00%     75.78% # Type of FU issued
system.switch_cpus_1.iq.FU_type_0::SimdSha256Hash2            0      0.00%     75.78% # Type of FU issued
system.switch_cpus_1.iq.FU_type_0::SimdShaSigma2            0      0.00%     75.78% # Type of FU issued
system.switch_cpus_1.iq.FU_type_0::SimdShaSigma3            0      0.00%     75.78% # Type of FU issued
system.switch_cpus_1.iq.FU_type_0::SimdPredAlu            0      0.00%     75.78% # Type of FU issued
system.switch_cpus_1.iq.FU_type_0::MemRead    125360199     19.32%     95.10% # Type of FU issued
system.switch_cpus_1.iq.FU_type_0::MemWrite     31771451      4.90%    100.00% # Type of FU issued
system.switch_cpus_1.iq.FU_type_0::FloatMemRead            0      0.00%    100.00% # Type of FU issued
system.switch_cpus_1.iq.FU_type_0::FloatMemWrite            0      0.00%    100.00% # Type of FU issued
system.switch_cpus_1.iq.FU_type_0::IprAccess            0      0.00%    100.00% # Type of FU issued
system.switch_cpus_1.iq.FU_type_0::InstPrefetch            0      0.00%    100.00% # Type of FU issued
system.switch_cpus_1.iq.FU_type_0::total    648814156                       # Type of FU issued
system.switch_cpus_1.iq.fp_alu_accesses        150968                       # Number of floating point alu accesses
system.switch_cpus_1.iq.fp_inst_queue_reads       305417                       # Number of floating instruction queue reads
system.switch_cpus_1.iq.fp_inst_queue_wakeup_accesses        84089                       # Number of floating instruction queue wakeup accesses
system.switch_cpus_1.iq.fp_inst_queue_writes       809428                       # Number of floating instruction queue writes
system.switch_cpus_1.iq.fu_busy_cnt           6402225                       # FU busy when requested
system.switch_cpus_1.iq.fu_busy_rate         0.009868                       # FU busy rate (busy events/executed inst)
system.switch_cpus_1.iq.fu_full::No_OpClass            0      0.00%      0.00% # attempts to use FU when none available
system.switch_cpus_1.iq.fu_full::IntAlu       4509756     70.44%     70.44% # attempts to use FU when none available
system.switch_cpus_1.iq.fu_full::IntMult            0      0.00%     70.44% # attempts to use FU when none available
system.switch_cpus_1.iq.fu_full::IntDiv             0      0.00%     70.44% # attempts to use FU when none available
system.switch_cpus_1.iq.fu_full::FloatAdd            0      0.00%     70.44% # attempts to use FU when none available
system.switch_cpus_1.iq.fu_full::FloatCmp            0      0.00%     70.44% # attempts to use FU when none available
system.switch_cpus_1.iq.fu_full::FloatCvt            2      0.00%     70.44% # attempts to use FU when none available
system.switch_cpus_1.iq.fu_full::FloatMult            0      0.00%     70.44% # attempts to use FU when none available
system.switch_cpus_1.iq.fu_full::FloatMultAcc            0      0.00%     70.44% # attempts to use FU when none available
system.switch_cpus_1.iq.fu_full::FloatDiv            0      0.00%     70.44% # attempts to use FU when none available
system.switch_cpus_1.iq.fu_full::FloatMisc            0      0.00%     70.44% # attempts to use FU when none available
system.switch_cpus_1.iq.fu_full::FloatSqrt            0      0.00%     70.44% # attempts to use FU when none available
system.switch_cpus_1.iq.fu_full::SimdAdd            0      0.00%     70.44% # attempts to use FU when none available
system.switch_cpus_1.iq.fu_full::SimdAddAcc            0      0.00%     70.44% # attempts to use FU when none available
system.switch_cpus_1.iq.fu_full::SimdAlu            0      0.00%     70.44% # attempts to use FU when none available
system.switch_cpus_1.iq.fu_full::SimdCmp            0      0.00%     70.44% # attempts to use FU when none available
system.switch_cpus_1.iq.fu_full::SimdCvt            0      0.00%     70.44% # attempts to use FU when none available
system.switch_cpus_1.iq.fu_full::SimdMisc            0      0.00%     70.44% # attempts to use FU when none available
system.switch_cpus_1.iq.fu_full::SimdMult            0      0.00%     70.44% # attempts to use FU when none available
system.switch_cpus_1.iq.fu_full::SimdMultAcc            0      0.00%     70.44% # attempts to use FU when none available
system.switch_cpus_1.iq.fu_full::SimdShift            0      0.00%     70.44% # attempts to use FU when none available
system.switch_cpus_1.iq.fu_full::SimdShiftAcc            0      0.00%     70.44% # attempts to use FU when none available
system.switch_cpus_1.iq.fu_full::SimdDiv            0      0.00%     70.44% # attempts to use FU when none available
system.switch_cpus_1.iq.fu_full::SimdSqrt            0      0.00%     70.44% # attempts to use FU when none available
system.switch_cpus_1.iq.fu_full::SimdFloatAdd            0      0.00%     70.44% # attempts to use FU when none available
system.switch_cpus_1.iq.fu_full::SimdFloatAlu            0      0.00%     70.44% # attempts to use FU when none available
system.switch_cpus_1.iq.fu_full::SimdFloatCmp            0      0.00%     70.44% # attempts to use FU when none available
system.switch_cpus_1.iq.fu_full::SimdFloatCvt            0      0.00%     70.44% # attempts to use FU when none available
system.switch_cpus_1.iq.fu_full::SimdFloatDiv            0      0.00%     70.44% # attempts to use FU when none available
system.switch_cpus_1.iq.fu_full::SimdFloatMisc            0      0.00%     70.44% # attempts to use FU when none available
system.switch_cpus_1.iq.fu_full::SimdFloatMult            0      0.00%     70.44% # attempts to use FU when none available
system.switch_cpus_1.iq.fu_full::SimdFloatMultAcc            0      0.00%     70.44% # attempts to use FU when none available
system.switch_cpus_1.iq.fu_full::SimdFloatSqrt            0      0.00%     70.44% # attempts to use FU when none available
system.switch_cpus_1.iq.fu_full::SimdReduceAdd            0      0.00%     70.44% # attempts to use FU when none available
system.switch_cpus_1.iq.fu_full::SimdReduceAlu            0      0.00%     70.44% # attempts to use FU when none available
system.switch_cpus_1.iq.fu_full::SimdReduceCmp            0      0.00%     70.44% # attempts to use FU when none available
system.switch_cpus_1.iq.fu_full::SimdFloatReduceAdd            0      0.00%     70.44% # attempts to use FU when none available
system.switch_cpus_1.iq.fu_full::SimdFloatReduceCmp            0      0.00%     70.44% # attempts to use FU when none available
system.switch_cpus_1.iq.fu_full::SimdAes            0      0.00%     70.44% # attempts to use FU when none available
system.switch_cpus_1.iq.fu_full::SimdAesMix            0      0.00%     70.44% # attempts to use FU when none available
system.switch_cpus_1.iq.fu_full::SimdSha1Hash            0      0.00%     70.44% # attempts to use FU when none available
system.switch_cpus_1.iq.fu_full::SimdSha1Hash2            0      0.00%     70.44% # attempts to use FU when none available
system.switch_cpus_1.iq.fu_full::SimdSha256Hash            0      0.00%     70.44% # attempts to use FU when none available
system.switch_cpus_1.iq.fu_full::SimdSha256Hash2            0      0.00%     70.44% # attempts to use FU when none available
system.switch_cpus_1.iq.fu_full::SimdShaSigma2            0      0.00%     70.44% # attempts to use FU when none available
system.switch_cpus_1.iq.fu_full::SimdShaSigma3            0      0.00%     70.44% # attempts to use FU when none available
system.switch_cpus_1.iq.fu_full::SimdPredAlu            0      0.00%     70.44% # attempts to use FU when none available
system.switch_cpus_1.iq.fu_full::MemRead      1863355     29.10%     99.55% # attempts to use FU when none available
system.switch_cpus_1.iq.fu_full::MemWrite        29112      0.45%    100.00% # attempts to use FU when none available
system.switch_cpus_1.iq.fu_full::FloatMemRead            0      0.00%    100.00% # attempts to use FU when none available
system.switch_cpus_1.iq.fu_full::FloatMemWrite            0      0.00%    100.00% # attempts to use FU when none available
system.switch_cpus_1.iq.fu_full::IprAccess            0      0.00%    100.00% # attempts to use FU when none available
system.switch_cpus_1.iq.fu_full::InstPrefetch            0      0.00%    100.00% # attempts to use FU when none available
system.switch_cpus_1.iq.int_alu_accesses    653437701                       # Number of integer alu accesses
system.switch_cpus_1.iq.int_inst_queue_reads   1857688886                       # Number of integer instruction queue reads
system.switch_cpus_1.iq.int_inst_queue_wakeup_accesses    611659364                       # Number of integer instruction queue wakeup accesses
system.switch_cpus_1.iq.int_inst_queue_writes   1089586129                       # Number of integer instruction queue writes
system.switch_cpus_1.iq.iqInstsAdded        756014762                       # Number of instructions added to the IQ (excludes non-spec)
system.switch_cpus_1.iq.iqInstsIssued       648814156                       # Number of instructions issued
system.switch_cpus_1.iq.iqSquashedInstsExamined    334347825                       # Number of squashed instructions iterated over during squash; mainly for profiling
system.switch_cpus_1.iq.iqSquashedInstsIssued      1528362                       # Number of squashed instructions issued
system.switch_cpus_1.iq.iqSquashedOperandsExamined    478837569                       # Number of squashed operands that are examined and possibly removed from graph
system.switch_cpus_1.iq.issued_per_cycle::samples    552435404                       # Number of insts issued each cycle
system.switch_cpus_1.iq.issued_per_cycle::mean     1.174462                       # Number of insts issued each cycle
system.switch_cpus_1.iq.issued_per_cycle::stdev     1.951234                       # Number of insts issued each cycle
system.switch_cpus_1.iq.issued_per_cycle::underflows            0      0.00%      0.00% # Number of insts issued each cycle
system.switch_cpus_1.iq.issued_per_cycle::0    352467788     63.80%     63.80% # Number of insts issued each cycle
system.switch_cpus_1.iq.issued_per_cycle::1     48410225      8.76%     72.57% # Number of insts issued each cycle
system.switch_cpus_1.iq.issued_per_cycle::2     39956633      7.23%     79.80% # Number of insts issued each cycle
system.switch_cpus_1.iq.issued_per_cycle::3     30012459      5.43%     85.23% # Number of insts issued each cycle
system.switch_cpus_1.iq.issued_per_cycle::4     27217194      4.93%     90.16% # Number of insts issued each cycle
system.switch_cpus_1.iq.issued_per_cycle::5     22826084      4.13%     94.29% # Number of insts issued each cycle
system.switch_cpus_1.iq.issued_per_cycle::6     17767998      3.22%     97.51% # Number of insts issued each cycle
system.switch_cpus_1.iq.issued_per_cycle::7      9370080      1.70%     99.20% # Number of insts issued each cycle
system.switch_cpus_1.iq.issued_per_cycle::8      4406943      0.80%    100.00% # Number of insts issued each cycle
system.switch_cpus_1.iq.issued_per_cycle::overflows            0      0.00%    100.00% # Number of insts issued each cycle
system.switch_cpus_1.iq.issued_per_cycle::min_value            0                       # Number of insts issued each cycle
system.switch_cpus_1.iq.issued_per_cycle::max_value            8                       # Number of insts issued each cycle
system.switch_cpus_1.iq.issued_per_cycle::total    552435404                       # Number of insts issued each cycle
system.switch_cpus_1.iq.rate                 1.174439                       # Inst issue rate
system.switch_cpus_1.iq.vec_alu_accesses            0                       # Number of vector alu accesses
system.switch_cpus_1.iq.vec_inst_queue_reads            0                       # Number of vector instruction queue reads
system.switch_cpus_1.iq.vec_inst_queue_wakeup_accesses            0                       # Number of vector instruction queue wakeup accesses
system.switch_cpus_1.iq.vec_inst_queue_writes            0                       # Number of vector instruction queue writes
system.switch_cpus_1.itb.rdAccesses                 0                       # TLB accesses on read requests
system.switch_cpus_1.itb.rdMisses                   0                       # TLB misses on read requests
system.switch_cpus_1.itb.wrAccesses          64207072                       # TLB accesses on write requests
system.switch_cpus_1.itb.wrMisses                 638                       # TLB misses on write requests
system.switch_cpus_1.memDep0.conflictingLoads     21044550                       # Number of conflicting loads.
system.switch_cpus_1.memDep0.conflictingStores     13821712                       # Number of conflicting stores.
system.switch_cpus_1.memDep0.insertedLoads    142400266                       # Number of loads inserted to the mem dependence unit.
system.switch_cpus_1.memDep0.insertedStores     44435987                       # Number of stores inserted to the mem dependence unit.
system.switch_cpus_1.misc_regfile_reads     269278499                       # number of misc regfile reads
system.switch_cpus_1.numCycles              552445937                       # number of cpu cycles simulated
system.switch_cpus_1.numWorkItemsCompleted            0                       # number of work items this cpu completed
system.switch_cpus_1.numWorkItemsStarted            0                       # number of work items this cpu started
system.switch_cpus_1.rename.BlockCycles     229740803                       # Number of cycles rename is blocking
system.switch_cpus_1.rename.CommittedMaps    530265430                       # Number of HB maps that are committed
system.switch_cpus_1.rename.IQFullEvents     36146991                       # Number of times rename has blocked due to IQ full
system.switch_cpus_1.rename.IdleCycles       62462277                       # Number of cycles rename is idle
system.switch_cpus_1.rename.LQFullEvents     23230668                       # Number of times rename has blocked due to LQ full
system.switch_cpus_1.rename.ROBFullEvents      4945353                       # Number of times rename has blocked due to ROB full
system.switch_cpus_1.rename.RenameLookups   2145637122                       # Number of register rename lookups that rename has made
system.switch_cpus_1.rename.RenamedInsts    832878232                       # Number of instructions processed by rename
system.switch_cpus_1.rename.RenamedOperands   1008833586                       # Number of destination operands rename has renamed
system.switch_cpus_1.rename.RunCycles       109244979                       # Number of cycles rename is running
system.switch_cpus_1.rename.SQFullEvents     78520426                       # Number of times rename has blocked due to SQ full
system.switch_cpus_1.rename.SquashCycles      8332112                       # Number of cycles rename is squashing
system.switch_cpus_1.rename.UnblockCycles    142655217                       # Number of cycles rename is unblocking
system.switch_cpus_1.rename.UndoneMaps      478568145                       # Number of HB maps that are undone due to squashing
system.switch_cpus_1.rename.fp_rename_lookups      2251849                       # Number of floating rename lookups
system.switch_cpus_1.rename.int_rename_lookups   1381012097                       # Number of integer rename lookups
system.switch_cpus_1.rename.serializeStallCycles            0                       # count of cycles rename stalled for serializing inst
system.switch_cpus_1.rename.serializingInsts            0                       # count of serializing insts renamed
system.switch_cpus_1.rename.skidInsts       110780352                       # count of insts added to the skid buffer
system.switch_cpus_1.rename.tempSerializingInsts            0                       # count of temporary serializing insts renamed
system.switch_cpus_1.rob.rob_reads         1235834646                       # The number of ROB reads
system.switch_cpus_1.rob.rob_writes        1562720625                       # The number of ROB writes
system.switch_cpus_1.timesIdled                    90                       # Number of times that the entire CPU went into an idle state and unscheduled itself
system.tol2bus.snoop_filter.hit_multi_requests            0                       # Number of requests hitting in the snoop filter with multiple (>1) holders of the requested data.
system.tol2bus.snoop_filter.hit_multi_snoops            0                       # Number of snoops hitting in the snoop filter with multiple (>1) holders of the requested data.
system.tol2bus.snoop_filter.hit_single_requests      4651014                       # Number of requests hitting in the snoop filter with a single holder of the requested data.
system.tol2bus.snoop_filter.hit_single_snoops       569528                       # Number of snoops hitting in the snoop filter with a single holder of the requested data.
system.tol2bus.snoop_filter.tot_requests      9173627                       # Total number of requests made to the snoop filter.
system.tol2bus.snoop_filter.tot_snoops         569528                       # Total number of snoops made to the snoop filter.
system.tol3bus.snoop_filter.hit_multi_requests            0                       # Number of requests hitting in the snoop filter with multiple (>1) holders of the requested data.
system.tol3bus.snoop_filter.hit_multi_snoops            0                       # Number of snoops hitting in the snoop filter with multiple (>1) holders of the requested data.
system.tol3bus.snoop_filter.hit_single_requests      4009150                       # Number of requests hitting in the snoop filter with a single holder of the requested data.
system.tol3bus.snoop_filter.hit_single_snoops       660266                       # Number of snoops hitting in the snoop filter with a single holder of the requested data.
system.tol3bus.snoop_filter.tot_requests      7988972                       # Total number of requests made to the snoop filter.
system.tol3bus.snoop_filter.tot_snoops         660266                       # Total number of snoops made to the snoop filter.
system.membus.trans_dist::ReadResp            1811233                       # Transaction distribution
system.membus.trans_dist::WritebackDirty       600658                       # Transaction distribution
system.membus.trans_dist::CleanEvict          1769713                       # Transaction distribution
system.membus.trans_dist::UpgradeReq              265                       # Transaction distribution
system.membus.trans_dist::ReadExReq            558781                       # Transaction distribution
system.membus.trans_dist::ReadExResp           558781                       # Transaction distribution
system.membus.trans_dist::ReadSharedReq       1811233                       # Transaction distribution
system.membus.pkt_count_system.l3.mem_side::system.mem_ctrls.port      7110664                       # Packet count per connected master and slave (bytes)
system.membus.pkt_count_system.l3.mem_side::total      7110664                       # Packet count per connected master and slave (bytes)
system.membus.pkt_count::total                7110664                       # Packet count per connected master and slave (bytes)
system.membus.pkt_size_system.l3.mem_side::system.mem_ctrls.port    190123008                       # Cumulative packet size per connected master and slave (bytes)
system.membus.pkt_size_system.l3.mem_side::total    190123008                       # Cumulative packet size per connected master and slave (bytes)
system.membus.pkt_size::total               190123008                       # Cumulative packet size per connected master and slave (bytes)
system.membus.snoops                                0                       # Total snoops (count)
system.membus.snoopTraffic                          0                       # Total snoop traffic (bytes)
system.membus.snoop_fanout::samples           2370279                       # Request fanout histogram
system.membus.snoop_fanout::mean                    0                       # Request fanout histogram
system.membus.snoop_fanout::stdev                   0                       # Request fanout histogram
system.membus.snoop_fanout::underflows              0      0.00%      0.00% # Request fanout histogram
system.membus.snoop_fanout::0                 2370279    100.00%    100.00% # Request fanout histogram
system.membus.snoop_fanout::1                       0      0.00%    100.00% # Request fanout histogram
system.membus.snoop_fanout::overflows               0      0.00%    100.00% # Request fanout histogram
system.membus.snoop_fanout::min_value               0                       # Request fanout histogram
system.membus.snoop_fanout::max_value               0                       # Request fanout histogram
system.membus.snoop_fanout::total             2370279                       # Request fanout histogram
system.membus.reqLayer2.occupancy          7780865000                       # Layer occupancy (ticks)
system.membus.reqLayer2.utilization               2.8                       # Layer utilization (%)
system.membus.respLayer1.occupancy        12852167500                       # Layer occupancy (ticks)
system.membus.respLayer1.utilization              4.7                       # Layer utilization (%)
system.membus.power_state.pwrStateResidencyTicks::UNDEFINED 1427116490500                       # Cumulative time (in ticks) in various power states
system.switch_cpus_1.dtb.walker.power_state.pwrStateResidencyTicks::UNDEFINED 1427116490500                       # Cumulative time (in ticks) in various power states
system.switch_cpus_1.itb.walker.power_state.pwrStateResidencyTicks::UNDEFINED 1427116490500                       # Cumulative time (in ticks) in various power states
system.switch_cpus_1.power_state.pwrStateResidencyTicks::OFF 1427116490500                       # Cumulative time (in ticks) in various power states
system.switch_cpus.dtb.walker.power_state.pwrStateResidencyTicks::UNDEFINED 1427116490500                       # Cumulative time (in ticks) in various power states
system.switch_cpus.itb.walker.power_state.pwrStateResidencyTicks::UNDEFINED 1427116490500                       # Cumulative time (in ticks) in various power states
system.switch_cpus.power_state.numTransitions            1                       # Number of power state transitions
system.switch_cpus.power_state.pwrStateResidencyTicks::OFF 1427116490500                       # Cumulative time (in ticks) in various power states
system.tol2bus.trans_dist::ReadResp           3703237                       # Transaction distribution
system.tol2bus.trans_dist::WritebackDirty      1573962                       # Transaction distribution
system.tol2bus.trans_dist::WritebackClean          177                       # Transaction distribution
system.tol2bus.trans_dist::CleanEvict         4234939                       # Transaction distribution
system.tol2bus.trans_dist::UpgradeReq          128401                       # Transaction distribution
system.tol2bus.trans_dist::UpgradeResp         128401                       # Transaction distribution
system.tol2bus.trans_dist::ReadExReq           819376                       # Transaction distribution
system.tol2bus.trans_dist::ReadExResp          819376                       # Transaction distribution
system.tol2bus.trans_dist::ReadCleanReq       3703237                       # Transaction distribution
system.tol2bus.pkt_count_system.cpu.icache.mem_side::system.l2.cpu_side          531                       # Packet count per connected master and slave (bytes)
system.tol2bus.pkt_count_system.cpu.dcache.mem_side::system.l2.cpu_side     13824110                       # Packet count per connected master and slave (bytes)
system.tol2bus.pkt_count::total              13824641                       # Packet count per connected master and slave (bytes)
system.tol2bus.pkt_size_system.cpu.icache.mem_side::system.l2.cpu_side        22656                       # Cumulative packet size per connected master and slave (bytes)
system.tol2bus.pkt_size_system.cpu.dcache.mem_side::system.l2.cpu_side    350085440                       # Cumulative packet size per connected master and slave (bytes)
system.tol2bus.pkt_size::total              350108096                       # Cumulative packet size per connected master and slave (bytes)
system.tol2bus.snoops                         1286465                       # Total snoops (count)
system.tol2bus.snoopTraffic                  40084032                       # Total snoop traffic (bytes)
system.tol2bus.snoop_fanout::samples          5937479                       # Request fanout histogram
system.tol2bus.snoop_fanout::mean            0.095921                       # Request fanout histogram
system.tol2bus.snoop_fanout::stdev           0.294483                       # Request fanout histogram
system.tol2bus.snoop_fanout::underflows             0      0.00%      0.00% # Request fanout histogram
system.tol2bus.snoop_fanout::0                5367951     90.41%     90.41% # Request fanout histogram
system.tol2bus.snoop_fanout::1                 569528      9.59%    100.00% # Request fanout histogram
system.tol2bus.snoop_fanout::2                      0      0.00%    100.00% # Request fanout histogram
system.tol2bus.snoop_fanout::3                      0      0.00%    100.00% # Request fanout histogram
system.tol2bus.snoop_fanout::4                      0      0.00%    100.00% # Request fanout histogram
system.tol2bus.snoop_fanout::overflows              0      0.00%    100.00% # Request fanout histogram
system.tol2bus.snoop_fanout::min_value              0                       # Request fanout histogram
system.tol2bus.snoop_fanout::max_value              1                       # Request fanout histogram
system.tol2bus.snoop_fanout::total            5937479                       # Request fanout histogram
system.tol2bus.reqLayer0.occupancy         5534639500                       # Layer occupancy (ticks)
system.tol2bus.reqLayer0.utilization              2.0                       # Layer utilization (%)
system.tol2bus.respLayer1.occupancy        6847854500                       # Layer occupancy (ticks)
system.tol2bus.respLayer1.utilization             2.5                       # Layer utilization (%)
system.tol2bus.respLayer0.occupancy            265500                       # Layer occupancy (ticks)
system.tol2bus.respLayer0.utilization             0.0                       # Layer utilization (%)
system.tol2bus.power_state.pwrStateResidencyTicks::UNDEFINED 1427116490500                       # Cumulative time (in ticks) in various power states
system.voltage_domain.voltage                       1                       # Voltage in Volts
system.clk_domain.clock                          1000                       # Clock period in ticks
system.l2.demand_hits::.switch_cpus_1.inst           18                       # number of demand (read+write) hits
system.l2.demand_hits::.switch_cpus_1.data       542773                       # number of demand (read+write) hits
system.l2.demand_hits::total                   542791                       # number of demand (read+write) hits
system.l2.overall_hits::.switch_cpus_1.inst           18                       # number of overall hits
system.l2.overall_hits::.switch_cpus_1.data       542773                       # number of overall hits
system.l2.overall_hits::total                  542791                       # number of overall hits
system.l2.demand_misses::.switch_cpus_1.inst          159                       # number of demand (read+write) misses
system.l2.demand_misses::.switch_cpus_1.data      3979663                       # number of demand (read+write) misses
system.l2.demand_misses::total                3979822                       # number of demand (read+write) misses
system.l2.overall_misses::.switch_cpus_1.inst          159                       # number of overall misses
system.l2.overall_misses::.switch_cpus_1.data      3979663                       # number of overall misses
system.l2.overall_misses::total               3979822                       # number of overall misses
system.l2.demand_miss_latency::.switch_cpus_1.inst     14997500                       # number of demand (read+write) miss cycles
system.l2.demand_miss_latency::.switch_cpus_1.data 295776741500                       # number of demand (read+write) miss cycles
system.l2.demand_miss_latency::total     295791739000                       # number of demand (read+write) miss cycles
system.l2.overall_miss_latency::.switch_cpus_1.inst     14997500                       # number of overall miss cycles
system.l2.overall_miss_latency::.switch_cpus_1.data 295776741500                       # number of overall miss cycles
system.l2.overall_miss_latency::total    295791739000                       # number of overall miss cycles
system.l2.demand_accesses::.switch_cpus_1.inst          177                       # number of demand (read+write) accesses
system.l2.demand_accesses::.switch_cpus_1.data      4522436                       # number of demand (read+write) accesses
system.l2.demand_accesses::total              4522613                       # number of demand (read+write) accesses
system.l2.overall_accesses::.switch_cpus_1.inst          177                       # number of overall (read+write) accesses
system.l2.overall_accesses::.switch_cpus_1.data      4522436                       # number of overall (read+write) accesses
system.l2.overall_accesses::total             4522613                       # number of overall (read+write) accesses
system.l2.demand_miss_rate::.switch_cpus_1.inst     0.898305                       # miss rate for demand accesses
system.l2.demand_miss_rate::.switch_cpus_1.data     0.879982                       # miss rate for demand accesses
system.l2.demand_miss_rate::total            0.879983                       # miss rate for demand accesses
system.l2.overall_miss_rate::.switch_cpus_1.inst     0.898305                       # miss rate for overall accesses
system.l2.overall_miss_rate::.switch_cpus_1.data     0.879982                       # miss rate for overall accesses
system.l2.overall_miss_rate::total           0.879983                       # miss rate for overall accesses
system.l2.demand_avg_miss_latency::.switch_cpus_1.inst 94323.899371                       # average overall miss latency
[...]
system.cpu.dcache.demand_miss_latency::.switch_cpus_1.data 468531128734                       # number of demand (read+write) miss cycles
system.cpu.dcache.demand_miss_latency::total 504908606734                       # number of demand (read+write) miss cycles
system.cpu.dcache.overall_miss_latency::.switch_cpus.data  36377478000                       # number of overall miss cycles
system.cpu.dcache.overall_miss_latency::.switch_cpus_1.data 468531128734                       # number of overall miss cycles
system.cpu.dcache.overall_miss_latency::total 504908606734                       # number of overall miss cycles
system.cpu.dcache.demand_accesses::.cpu.data    433795338                       # number of demand (read+write) accesses
system.cpu.dcache.demand_accesses::.switch_cpus.data     21480195                       # number of demand (read+write) accesses
system.cpu.dcache.demand_accesses::.switch_cpus_1.data    130064677                       # number of demand (read+write) accesses
system.cpu.dcache.demand_accesses::total    585340210                       # number of demand (read+write) accesses
system.cpu.dcache.overall_accesses::.cpu.data    433795338                       # number of overall (read+write) accesses
system.cpu.dcache.overall_accesses::.switch_cpus.data     21480195                       # number of overall (read+write) accesses
system.cpu.dcache.overall_accesses::.switch_cpus_1.data    130064677                       # number of overall (read+write) accesses
system.cpu.dcache.overall_accesses::total    585340210                       # number of overall (read+write) accesses
system.cpu.dcache.demand_miss_rate::.cpu.data     0.034797                       # miss rate for demand accesses
system.cpu.dcache.demand_miss_rate::.switch_cpus.data     0.027707                       # miss rate for demand accesses
system.cpu.dcache.demand_miss_rate::.switch_cpus_1.data     0.055209                       # miss rate for demand accesses
system.cpu.dcache.demand_miss_rate::total     0.039072                       # miss rate for demand accesses
system.cpu.dcache.overall_miss_rate::.cpu.data     0.034797                       # miss rate for overall accesses
system.cpu.dcache.overall_miss_rate::.switch_cpus.data     0.027707                       # miss rate for overall accesses
system.cpu.dcache.overall_miss_rate::.switch_cpus_1.data     0.055209                       # miss rate for overall accesses
system.cpu.dcache.overall_miss_rate::total     0.039072                       # miss rate for overall accesses
system.cpu.dcache.demand_avg_miss_latency::.switch_cpus.data 61123.825494                       # average overall miss latency
system.cpu.dcache.demand_avg_miss_latency::.switch_cpus_1.data 65248.488833                       # average overall miss latency
system.cpu.dcache.demand_avg_miss_latency::total 22076.816600                       # average overall miss latency
system.cpu.dcache.overall_avg_miss_latency::.switch_cpus.data 61123.825494                       # average overall miss latency
system.cpu.dcache.overall_avg_miss_latency::.switch_cpus_1.data 65248.488833                       # average overall miss latency
system.cpu.dcache.overall_avg_miss_latency::total 22076.816600                       # average overall miss latency
system.cpu.dcache.blocked_cycles::no_mshrs     54703455                       # number of cycles access was blocked
system.cpu.dcache.blocked_cycles::no_targets          310                       # number of cycles access was blocked
system.cpu.dcache.blocked::no_mshrs           1317254                       # number of cycles access was blocked
system.cpu.dcache.blocked::no_targets               5                       # number of cycles access was blocked
system.cpu.dcache.avg_blocked_cycles::no_mshrs    41.528403                       # average number of cycles each access was blocked
system.cpu.dcache.avg_blocked_cycles::no_targets           62                       # average number of cycles each access was blocked
system.cpu.dcache.writebacks::.writebacks      5576068                       # number of writebacks
system.cpu.dcache.writebacks::total           5576068                       # number of writebacks
system.cpu.dcache.demand_mshr_hits::.switch_cpus_1.data      2529890                       # number of demand (read+write) MSHR hits
system.cpu.dcache.demand_mshr_hits::total      2529890                       # number of demand (read+write) MSHR hits
system.cpu.dcache.overall_mshr_hits::.switch_cpus_1.data      2529890                       # number of overall MSHR hits
system.cpu.dcache.overall_mshr_hits::total      2529890                       # number of overall MSHR hits
system.cpu.dcache.demand_mshr_misses::.switch_cpus.data       595144                       # number of demand (read+write) MSHR misses
system.cpu.dcache.demand_mshr_misses::.switch_cpus_1.data      4650830                       # number of demand (read+write) MSHR misses
system.cpu.dcache.demand_mshr_misses::total      5245974                       # number of demand (read+write) MSHR misses
system.cpu.dcache.overall_mshr_misses::.switch_cpus.data       595144                       # number of overall MSHR misses
system.cpu.dcache.overall_mshr_misses::.switch_cpus_1.data      4650830                       # number of overall MSHR misses
system.cpu.dcache.overall_mshr_misses::total      5245974                       # number of overall MSHR misses
system.cpu.dcache.demand_mshr_miss_latency::.switch_cpus.data  35782334000                       # number of demand (read+write) MSHR miss cycles
system.cpu.dcache.demand_mshr_miss_latency::.switch_cpus_1.data 310164850734                       # number of demand (read+write) MSHR miss cycles
system.cpu.dcache.demand_mshr_miss_latency::total 345947184734                       # number of demand (read+write) MSHR miss cycles
system.cpu.dcache.overall_mshr_miss_latency::.switch_cpus.data  35782334000                       # number of overall MSHR miss cycles
system.cpu.dcache.overall_mshr_miss_latency::.switch_cpus_1.data 310164850734                       # number of overall MSHR miss cycles
system.cpu.dcache.overall_mshr_miss_latency::total 345947184734                       # number of overall MSHR miss cycles
system.cpu.dcache.demand_mshr_miss_rate::.switch_cpus.data     0.027707                       # mshr miss rate for demand accesses
system.cpu.dcache.demand_mshr_miss_rate::.switch_cpus_1.data     0.035758                       # mshr miss rate for demand accesses
system.cpu.dcache.demand_mshr_miss_rate::total     0.008962                       # mshr miss rate for demand accesses
system.cpu.dcache.overall_mshr_miss_rate::.switch_cpus.data     0.027707                       # mshr miss rate for overall accesses
system.cpu.dcache.overall_mshr_miss_rate::.switch_cpus_1.data     0.035758                       # mshr miss rate for overall accesses
system.cpu.dcache.overall_mshr_miss_rate::total     0.008962                       # mshr miss rate for overall accesses
system.cpu.dcache.demand_avg_mshr_miss_latency::.switch_cpus.data 60123.825494                       # average overall mshr miss latency
system.cpu.dcache.demand_avg_mshr_miss_latency::.switch_cpus_1.data 66690.214593                       # average overall mshr miss latency
system.cpu.dcache.demand_avg_mshr_miss_latency::total 65945.272457                       # average overall mshr miss latency
system.cpu.dcache.overall_avg_mshr_miss_latency::.switch_cpus.data 60123.825494                       # average overall mshr miss latency
system.cpu.dcache.overall_avg_mshr_miss_latency::.switch_cpus_1.data 66690.214593                       # average overall mshr miss latency
system.cpu.dcache.overall_avg_mshr_miss_latency::total 65945.272457                       # average overall mshr miss latency
system.cpu.dcache.replacements               18716059                       # number of replacements
system.cpu.dcache.ReadReq_hits::.cpu.data    311146590                       # number of ReadReq hits
system.cpu.dcache.ReadReq_hits::.switch_cpus.data     17715663                       # number of ReadReq hits
system.cpu.dcache.ReadReq_hits::.switch_cpus_1.data    101109482                       # number of ReadReq hits
system.cpu.dcache.ReadReq_hits::total       429971735                       # number of ReadReq hits
system.cpu.dcache.ReadReq_misses::.cpu.data     10609375                       # number of ReadReq misses
system.cpu.dcache.ReadReq_misses::.switch_cpus.data       451998                       # number of ReadReq misses
system.cpu.dcache.ReadReq_misses::.switch_cpus_1.data      6232943                       # number of ReadReq misses
system.cpu.dcache.ReadReq_misses::total      17294316                       # number of ReadReq misses
system.cpu.dcache.ReadReq_miss_latency::.switch_cpus.data  25775720500                       # number of ReadReq miss cycles
system.cpu.dcache.ReadReq_miss_latency::.switch_cpus_1.data 400931322500                       # number of ReadReq miss cycles
system.cpu.dcache.ReadReq_miss_latency::total 426707043000                       # number of ReadReq miss cycles
system.cpu.dcache.ReadReq_accesses::.cpu.data    321755965                       # number of ReadReq accesses(hits+misses)
system.cpu.dcache.ReadReq_accesses::.switch_cpus.data     18167661                       # number of ReadReq accesses(hits+misses)
system.cpu.dcache.ReadReq_accesses::.switch_cpus_1.data    107342425                       # number of ReadReq accesses(hits+misses)
system.cpu.dcache.ReadReq_accesses::total    447266051                       # number of ReadReq accesses(hits+misses)
system.cpu.dcache.ReadReq_miss_rate::.cpu.data     0.032973                       # miss rate for ReadReq accesses
system.cpu.dcache.ReadReq_miss_rate::.switch_cpus.data     0.024879                       # miss rate for ReadReq accesses
system.cpu.dcache.ReadReq_miss_rate::.switch_cpus_1.data     0.058066                       # miss rate for ReadReq accesses
system.cpu.dcache.ReadReq_miss_rate::total     0.038667                       # miss rate for ReadReq accesses
system.cpu.dcache.ReadReq_avg_miss_latency::.switch_cpus.data 57026.182638                       # average ReadReq miss latency
system.cpu.dcache.ReadReq_avg_miss_latency::.switch_cpus_1.data 64324.561046                       # average ReadReq miss latency
system.cpu.dcache.ReadReq_avg_miss_latency::total 24673.253513                       # average ReadReq miss latency
system.cpu.dcache.ReadReq_mshr_hits::.switch_cpus_1.data      2529883                       # number of ReadReq MSHR hits
system.cpu.dcache.ReadReq_mshr_hits::total      2529883                       # number of ReadReq MSHR hits
system.cpu.dcache.ReadReq_mshr_misses::.switch_cpus.data       451998                       # number of ReadReq MSHR misses
system.cpu.dcache.ReadReq_mshr_misses::.switch_cpus_1.data      3703060                       # number of ReadReq MSHR misses
system.cpu.dcache.ReadReq_mshr_misses::total      4155058                       # number of ReadReq MSHR misses
system.cpu.dcache.ReadReq_mshr_miss_latency::.switch_cpus.data  25323722500                       # number of ReadReq MSHR miss cycles
system.cpu.dcache.ReadReq_mshr_miss_latency::.switch_cpus_1.data 243512821500                       # number of ReadReq MSHR miss cycles
system.cpu.dcache.ReadReq_mshr_miss_latency::total 268836544000                       # number of ReadReq MSHR miss cycles
system.cpu.dcache.ReadReq_mshr_miss_rate::.switch_cpus.data     0.024879                       # mshr miss rate for ReadReq accesses
system.cpu.dcache.ReadReq_mshr_miss_rate::.switch_cpus_1.data     0.034498                       # mshr miss rate for ReadReq accesses
system.cpu.dcache.ReadReq_mshr_miss_rate::total     0.009290                       # mshr miss rate for ReadReq accesses
system.cpu.dcache.ReadReq_avg_mshr_miss_latency::.switch_cpus.data 56026.182638                       # average ReadReq mshr miss latency
system.cpu.dcache.ReadReq_avg_mshr_miss_latency::.switch_cpus_1.data 65759.890874                       # average ReadReq mshr miss latency
system.cpu.dcache.ReadReq_avg_mshr_miss_latency::total 64701.032814                       # average ReadReq mshr miss latency
system.cpu.dcache.WriteReq_hits::.cpu.data    107554077                       # number of WriteReq hits
system.cpu.dcache.WriteReq_hits::.switch_cpus.data      3169388                       # number of WriteReq hits
system.cpu.dcache.WriteReq_hits::.switch_cpus_1.data     21774475                       # number of WriteReq hits
system.cpu.dcache.WriteReq_hits::total      132497940                       # number of WriteReq hits
system.cpu.dcache.WriteReq_misses::.cpu.data      4485296                       # number of WriteReq misses
system.cpu.dcache.WriteReq_misses::.switch_cpus.data       143146                       # number of WriteReq misses
system.cpu.dcache.WriteReq_misses::.switch_cpus_1.data       947777                       # number of WriteReq misses
system.cpu.dcache.WriteReq_misses::total      5576219                       # number of WriteReq misses
system.cpu.dcache.WriteReq_miss_latency::.switch_cpus.data  10601757500                       # number of WriteReq miss cycles
system.cpu.dcache.WriteReq_miss_latency::.switch_cpus_1.data  67599806234                       # number of WriteReq miss cycles
system.cpu.dcache.WriteReq_miss_latency::total  78201563734                       # number of WriteReq miss cycles
system.cpu.dcache.WriteReq_accesses::.cpu.data    112039373                       # number of WriteReq accesses(hits+misses)
system.cpu.dcache.WriteReq_accesses::.switch_cpus.data      3312534                       # number of WriteReq accesses(hits+misses)
system.cpu.dcache.WriteReq_accesses::.switch_cpus_1.data     22722252                       # number of WriteReq accesses(hits+misses)
system.cpu.dcache.WriteReq_accesses::total    138074159                       # number of WriteReq accesses(hits+misses)
system.cpu.dcache.WriteReq_miss_rate::.cpu.data     0.040033                       # miss rate for WriteReq accesses
system.cpu.dcache.WriteReq_miss_rate::.switch_cpus.data     0.043213                       # miss rate for WriteReq accesses
system.cpu.dcache.WriteReq_miss_rate::.switch_cpus_1.data     0.041711                       # miss rate for WriteReq accesses
system.cpu.dcache.WriteReq_miss_rate::total     0.040386                       # miss rate for WriteReq accesses
system.cpu.dcache.WriteReq_avg_miss_latency::.switch_cpus.data 74062.548028                       # average WriteReq miss latency
system.cpu.dcache.WriteReq_avg_miss_latency::.switch_cpus_1.data 71324.590314                       # average WriteReq miss latency
system.cpu.dcache.WriteReq_avg_miss_latency::total 14024.119880                       # average WriteReq miss latency
system.cpu.dcache.WriteReq_mshr_hits::.switch_cpus_1.data            7                       # number of WriteReq MSHR hits
system.cpu.dcache.WriteReq_mshr_hits::total            7                       # number of WriteReq MSHR hits
system.cpu.dcache.WriteReq_mshr_misses::.switch_cpus.data       143146                       # number of WriteReq MSHR misses
system.cpu.dcache.WriteReq_mshr_misses::.switch_cpus_1.data       947770                       # number of WriteReq MSHR misses
system.cpu.dcache.WriteReq_mshr_misses::total      1090916                       # number of WriteReq MSHR misses
system.cpu.dcache.WriteReq_mshr_miss_latency::.switch_cpus.data  10458611500                       # number of WriteReq MSHR miss cycles
system.cpu.dcache.WriteReq_mshr_miss_latency::.switch_cpus_1.data  66652029234                       # number of WriteReq MSHR miss cycles
system.cpu.dcache.WriteReq_mshr_miss_latency::total  77110640734                       # number of WriteReq MSHR miss cycles
system.cpu.dcache.WriteReq_mshr_miss_rate::.switch_cpus.data     0.043213                       # mshr miss rate for WriteReq accesses
system.cpu.dcache.WriteReq_mshr_miss_rate::.switch_cpus_1.data     0.041711                       # mshr miss rate for WriteReq accesses
system.cpu.dcache.WriteReq_mshr_miss_rate::total     0.007901                       # mshr miss rate for WriteReq accesses
system.cpu.dcache.WriteReq_avg_mshr_miss_latency::.switch_cpus.data 73062.548028                       # average WriteReq mshr miss latency
system.cpu.dcache.WriteReq_avg_mshr_miss_latency::.switch_cpus_1.data 70325.109714                       # average WriteReq mshr miss latency
system.cpu.dcache.WriteReq_avg_mshr_miss_latency::total 70684.306339                       # average WriteReq mshr miss latency
system.cpu.dcache.power_state.pwrStateResidencyTicks::UNDEFINED 1427116490500                       # Cumulative time (in ticks) in various power states
system.cpu.dcache.tags.tagsinuse           511.995853                       # Cycle average of tags in use
system.cpu.dcache.tags.total_refs           582937083                       # Total number of references to valid blocks.
system.cpu.dcache.tags.sampled_refs          18716571                       # Sample count of references to valid blocks.
system.cpu.dcache.tags.avg_refs             31.145506                       # Average number of references to valid blocks.
system.cpu.dcache.tags.warmup_cycle              1500                       # Cycle when the warmup percentage was hit.
system.cpu.dcache.tags.occ_blocks::.cpu.data   368.225263                       # Average occupied blocks per requestor
system.cpu.dcache.tags.occ_blocks::.switch_cpus.data    44.678072                       # Average occupied blocks per requestor
system.cpu.dcache.tags.occ_blocks::.switch_cpus_1.data    99.092518                       # Average occupied blocks per requestor
system.cpu.dcache.tags.occ_percent::.cpu.data     0.719190                       # Average percentage of cache occupancy
system.cpu.dcache.tags.occ_percent::.switch_cpus.data     0.087262                       # Average percentage of cache occupancy
system.cpu.dcache.tags.occ_percent::.switch_cpus_1.data     0.193540                       # Average percentage of cache occupancy
system.cpu.dcache.tags.occ_percent::total     0.999992                       # Average percentage of cache occupancy
system.cpu.dcache.tags.occ_task_id_blocks::1024          512                       # Occupied blocks per task id
system.cpu.dcache.tags.age_task_id_blocks_1024::0           35                       # Occupied blocks per task id
system.cpu.dcache.tags.age_task_id_blocks_1024::1          314                       # Occupied blocks per task id
system.cpu.dcache.tags.age_task_id_blocks_1024::2          162                       # Occupied blocks per task id
system.cpu.dcache.tags.age_task_id_blocks_1024::3            1                       # Occupied blocks per task id
system.cpu.dcache.tags.occ_task_id_percent::1024            1                       # Percentage of cache occupancy per task id
system.cpu.dcache.tags.tag_accesses        2360077411                       # Number of tag accesses
system.cpu.dcache.tags.data_accesses       2360077411                       # Number of data accesses
system.cpu.dcache.tags.power_state.pwrStateResidencyTicks::UNDEFINED 1427116490500                       # Cumulative time (in ticks) in various power states
system.cpu.power_state.numTransitions               2                       # Number of power state transitions
system.cpu.power_state.pwrStateResidencyTicks::ON 1026110805500                       # Cumulative time (in ticks) in various power states
system.cpu.power_state.pwrStateResidencyTicks::OFF 401005685000                       # Cumulative time (in ticks) in various power states

---------- End Simulation Statistics   ----------
