
---------- Begin Simulation Statistics ----------
simSeconds                                   0.202141                       # Number of seconds simulated (Second)
simTicks                                 202141411000                       # Number of ticks simulated (Tick)
finalTick                                891763994500                       # Number of ticks from beginning of simulation (restored from checkpoints and never reset) (Tick)
simFreq                                  1000000000000                       # The number of ticks per simulated second ((Tick/Second))
hostSeconds                                    617.14                       # Real time elapsed on the host (Second)
hostTickRate                                327544690                       # The number of ticks simulated per host second (ticks/s) ((Tick/Second))
hostMemory                                  413775264                       # Number of bytes of host memory used (Byte)
simInsts                                   1300000002                       # Number of instructions simulated (Count)
simOps                                     1304492528                       # Number of ops (including micro ops) simulated (Count)
hostInstRate                                  2106486                       # Simulator instruction rate (inst/s) ((Count/Second))
hostOpRate                                    2113766                       # Simulator op (including micro ops) rate (op/s) ((Count/Second))
system.clk_domain.clock                          1000                       # Clock period in ticks (Tick)
system.cpu.numCycles                                0                       # Number of cpu cycles simulated (Cycle)
system.cpu.numWorkItemsStarted                      0                       # Number of work items this cpu started (Count)
system.cpu.numWorkItemsCompleted                    0                       # Number of work items this cpu completed (Count)
system.cpu.dcache.demandHits::switch_cpus_1.data      6727325                       # number of demand (read+write) hits (Count)
system.cpu.dcache.demandHits::total           6727325                       # number of demand (read+write) hits (Count)
system.cpu.dcache.overallHits::switch_cpus_1.data      6727325                       # number of overall hits (Count)
system.cpu.dcache.overallHits::total          6727325                       # number of overall hits (Count)
system.cpu.dcache.demandMisses::switch_cpus_1.data     49413157                       # number of demand (read+write) misses (Count)
system.cpu.dcache.demandMisses::total        49413157                       # number of demand (read+write) misses (Count)
system.cpu.dcache.overallMisses::switch_cpus_1.data     49413157                       # number of overall misses (Count)
system.cpu.dcache.overallMisses::total       49413157                       # number of overall misses (Count)
system.cpu.dcache.demandMissLatency::switch_cpus_1.data 3168947393139                       # number of demand (read+write) miss ticks (Tick)
system.cpu.dcache.demandMissLatency::total 3168947393139                       # number of demand (read+write) miss ticks (Tick)
system.cpu.dcache.overallMissLatency::switch_cpus_1.data 3168947393139                       # number of overall miss ticks (Tick)
system.cpu.dcache.overallMissLatency::total 3168947393139                       # number of overall miss ticks (Tick)
system.cpu.dcache.demandAccesses::switch_cpus_1.data     56140482                       # number of demand (read+write) accesses (Count)
system.cpu.dcache.demandAccesses::total      56140482                       # number of demand (read+write) accesses (Count)
system.cpu.dcache.overallAccesses::switch_cpus_1.data     56140482                       # number of overall (read+write) accesses (Count)
system.cpu.dcache.overallAccesses::total     56140482                       # number of overall (read+write) accesses (Count)
system.cpu.dcache.demandMissRate::switch_cpus_1.data     0.880170                       # miss rate for demand accesses (Ratio)
system.cpu.dcache.demandMissRate::total      0.880170                       # miss rate for demand accesses (Ratio)
system.cpu.dcache.overallMissRate::switch_cpus_1.data     0.880170                       # miss rate for overall accesses (Ratio)
system.cpu.dcache.overallMissRate::total     0.880170                       # miss rate for overall accesses (Ratio)
system.cpu.dcache.demandAvgMissLatency::switch_cpus_1.data 64131.652085                       # average overall miss latency ((Cycle/Count))
system.cpu.dcache.demandAvgMissLatency::total 64131.652085                       # average overall miss latency ((Cycle/Count))
system.cpu.dcache.overallAvgMissLatency::switch_cpus_1.data 64131.652085                       # average overall miss latency ((Cycle/Count))
system.cpu.dcache.overallAvgMissLatency::total 64131.652085                       # average overall miss latency ((Cycle/Count))
system.cpu.dcache.blockedCycles::no_mshrs    168347400                       # number of cycles access was blocked (Cycle)
system.cpu.dcache.blockedCycles::no_targets            0                       # number of cycles access was blocked (Cycle)
system.cpu.dcache.blockedCauses::no_mshrs      3757361                       # number of times access was blocked (Count)
system.cpu.dcache.blockedCauses::no_targets            0                       # number of times access was blocked (Count)
system.cpu.dcache.avgBlocked::no_mshrs      44.804691                       # average number of cycles each access was blocked ((Cycle/Count))
system.cpu.dcache.avgBlocked::no_targets          nan                       # average number of cycles each access was blocked ((Cycle/Count))
system.cpu.dcache.writebacks::writebacks      1828812                       # number of writebacks (Count)
system.cpu.dcache.writebacks::total           1828812                       # number of writebacks (Count)
system.cpu.dcache.demandMshrHits::switch_cpus_1.data     42481275                       # number of demand (read+write) MSHR hits (Count)
system.cpu.dcache.demandMshrHits::total      42481275                       # number of demand (read+write) MSHR hits (Count)
system.cpu.dcache.overallMshrHits::switch_cpus_1.data     42481275                       # number of overall MSHR hits (Count)
system.cpu.dcache.overallMshrHits::total     42481275                       # number of overall MSHR hits (Count)
system.cpu.dcache.demandMshrMisses::switch_cpus_1.data      6931882                       # number of demand (read+write) MSHR misses (Count)
system.cpu.dcache.demandMshrMisses::total      6931882                       # number of demand (read+write) MSHR misses (Count)
system.cpu.dcache.overallMshrMisses::switch_cpus_1.data      6931882                       # number of overall MSHR misses (Count)
system.cpu.dcache.overallMshrMisses::total      6931882                       # number of overall MSHR misses (Count)
system.cpu.dcache.demandMshrMissLatency::switch_cpus_1.data 564789067529                       # number of demand (read+write) MSHR miss ticks (Tick)
system.cpu.dcache.demandMshrMissLatency::total 564789067529                       # number of demand (read+write) MSHR miss ticks (Tick)
system.cpu.dcache.overallMshrMissLatency::switch_cpus_1.data 564789067529                       # number of overall MSHR miss ticks (Tick)
system.cpu.dcache.overallMshrMissLatency::total 564789067529                       # number of overall MSHR miss ticks (Tick)
system.cpu.dcache.demandMshrMissRate::switch_cpus_1.data     0.123474                       # mshr miss ratio for demand accesses (Ratio)
system.cpu.dcache.demandMshrMissRate::total     0.123474                       # mshr miss ratio for demand accesses (Ratio)
system.cpu.dcache.overallMshrMissRate::switch_cpus_1.data     0.123474                       # mshr miss ratio for overall accesses (Ratio)
system.cpu.dcache.overallMshrMissRate::total     0.123474                       # mshr miss ratio for overall accesses (Ratio)
system.cpu.dcache.demandAvgMshrMissLatency::switch_cpus_1.data 81477.016996                       # average overall mshr miss latency ((Cycle/Count))
system.cpu.dcache.demandAvgMshrMissLatency::total 81477.016996                       # average overall mshr miss latency ((Cycle/Count))
system.cpu.dcache.overallAvgMshrMissLatency::switch_cpus_1.data 81477.016996                       # average overall mshr miss latency ((Cycle/Count))
system.cpu.dcache.overallAvgMshrMissLatency::total 81477.016996                       # average overall mshr miss latency ((Cycle/Count))
system.cpu.dcache.replacements                6931880                       # number of replacements (Count)
system.cpu.dcache.ReadReq.hits::switch_cpus_1.data      5956350                       # number of ReadReq hits (Count)
system.cpu.dcache.ReadReq.hits::total         5956350                       # number of ReadReq hits (Count)
system.cpu.dcache.ReadReq.misses::switch_cpus_1.data     35644641                       # number of ReadReq misses (Count)
system.cpu.dcache.ReadReq.misses::total      35644641                       # number of ReadReq misses (Count)
system.cpu.dcache.ReadReq.missLatency::switch_cpus_1.data 2276539842000                       # number of ReadReq miss ticks (Tick)
system.cpu.dcache.ReadReq.missLatency::total 2276539842000                       # number of ReadReq miss ticks (Tick)
system.cpu.dcache.ReadReq.accesses::switch_cpus_1.data     41600991                       # number of ReadReq accesses(hits+misses) (Count)
system.cpu.dcache.ReadReq.accesses::total     41600991                       # number of ReadReq accesses(hits+misses) (Count)
system.cpu.dcache.ReadReq.missRate::switch_cpus_1.data     0.856822                       # miss rate for ReadReq accesses (Ratio)
system.cpu.dcache.ReadReq.missRate::total     0.856822                       # miss rate for ReadReq accesses (Ratio)
system.cpu.dcache.ReadReq.avgMissLatency::switch_cpus_1.data 63867.660836                       # average ReadReq miss latency ((Tick/Count))
system.cpu.dcache.ReadReq.avgMissLatency::total 63867.660836                       # average ReadReq miss latency ((Tick/Count))
system.cpu.dcache.ReadReq.mshrHits::switch_cpus_1.data     30541340                       # number of ReadReq MSHR hits (Count)
system.cpu.dcache.ReadReq.mshrHits::total     30541340                       # number of ReadReq MSHR hits (Count)
system.cpu.dcache.ReadReq.mshrMisses::switch_cpus_1.data      5103301                       # number of ReadReq MSHR misses (Count)
system.cpu.dcache.ReadReq.mshrMisses::total      5103301                       # number of ReadReq MSHR misses (Count)
system.cpu.dcache.ReadReq.mshrMissLatency::switch_cpus_1.data 399615717500                       # number of ReadReq MSHR miss ticks (Tick)
system.cpu.dcache.ReadReq.mshrMissLatency::total 399615717500                       # number of ReadReq MSHR miss ticks (Tick)
system.cpu.dcache.ReadReq.mshrMissRate::switch_cpus_1.data     0.122673                       # mshr miss rate for ReadReq accesses (Ratio)
system.cpu.dcache.ReadReq.mshrMissRate::total     0.122673                       # mshr miss rate for ReadReq accesses (Ratio)
system.cpu.dcache.ReadReq.avgMshrMissLatency::switch_cpus_1.data 78305.339524                       # average ReadReq mshr miss latency ((Tick/Count))
system.cpu.dcache.ReadReq.avgMshrMissLatency::total 78305.339524                       # average ReadReq mshr miss latency ((Tick/Count))
system.cpu.dcache.WriteReq.hits::switch_cpus_1.data       770975                       # number of WriteReq hits (Count)
system.cpu.dcache.WriteReq.hits::total         770975                       # number of WriteReq hits (Count)
system.cpu.dcache.WriteReq.misses::switch_cpus_1.data     13768516                       # number of WriteReq misses (Count)
system.cpu.dcache.WriteReq.misses::total     13768516                       # number of WriteReq misses (Count)
system.cpu.dcache.WriteReq.missLatency::switch_cpus_1.data 892407551139                       # number of WriteReq miss ticks (Tick)
system.cpu.dcache.WriteReq.missLatency::total 892407551139                       # number of WriteReq miss ticks (Tick)
system.cpu.dcache.WriteReq.accesses::switch_cpus_1.data     14539491                       # number of WriteReq accesses(hits+misses) (Count)
system.cpu.dcache.WriteReq.accesses::total     14539491                       # number of WriteReq accesses(hits+misses) (Count)
system.cpu.dcache.WriteReq.missRate::switch_cpus_1.data     0.946974                       # miss rate for WriteReq accesses (Ratio)
system.cpu.dcache.WriteReq.missRate::total     0.946974                       # miss rate for WriteReq accesses (Ratio)
system.cpu.dcache.WriteReq.avgMissLatency::switch_cpus_1.data 64815.086182                       # average WriteReq miss latency ((Tick/Count))
system.cpu.dcache.WriteReq.avgMissLatency::total 64815.086182                       # average WriteReq miss latency ((Tick/Count))
system.cpu.dcache.WriteReq.mshrHits::switch_cpus_1.data     11939935                       # number of WriteReq MSHR hits (Count)
system.cpu.dcache.WriteReq.mshrHits::total     11939935                       # number of WriteReq MSHR hits (Count)
system.cpu.dcache.WriteReq.mshrMisses::switch_cpus_1.data      1828581                       # number of WriteReq MSHR misses (Count)
system.cpu.dcache.WriteReq.mshrMisses::total      1828581                       # number of WriteReq MSHR misses (Count)
system.cpu.dcache.WriteReq.mshrMissLatency::switch_cpus_1.data 165173350029                       # number of WriteReq MSHR miss ticks (Tick)
system.cpu.dcache.WriteReq.mshrMissLatency::total 165173350029                       # number of WriteReq MSHR miss ticks (Tick)
system.cpu.dcache.WriteReq.mshrMissRate::switch_cpus_1.data     0.125767                       # mshr miss rate for WriteReq accesses (Ratio)
system.cpu.dcache.WriteReq.mshrMissRate::total     0.125767                       # mshr miss rate for WriteReq accesses (Ratio)
system.cpu.dcache.WriteReq.avgMshrMissLatency::switch_cpus_1.data 90328.702983                       # average WriteReq mshr miss latency ((Tick/Count))
system.cpu.dcache.WriteReq.avgMshrMissLatency::total 90328.702983                       # average WriteReq mshr miss latency ((Tick/Count))
system.cpu.dcache.power_state.pwrStateResidencyTicks::UNDEFINED 891763994500                       # Cumulative time (in ticks) in various power states (Tick)
system.cpu.dcache.tags.tagsInUse                  256                       # Average ticks per tags in use ((Tick/Count))
system.cpu.dcache.tags.totalRefs             13661164                       # Total number of references to valid blocks. (Count)
system.cpu.dcache.tags.sampledRefs            6932136                       # Sample count of references to valid blocks. (Count)
system.cpu.dcache.tags.avgRefs               1.970701                       # Average number of references to valid blocks. ((Count/Count))
system.cpu.dcache.tags.warmupTick                   0                       # The tick when the warmup percentage was hit. (Tick)
system.cpu.dcache.tags.occupancies::switch_cpus.data     0.003431                       # Average occupied blocks per tick, per requestor ((Count/Tick))
system.cpu.dcache.tags.occupancies::switch_cpus_1.data   255.996569                       # Average occupied blocks per tick, per requestor ((Count/Tick))
system.cpu.dcache.tags.avgOccs::switch_cpus.data     0.000013                       # Average percentage of cache occupancy ((Ratio/Tick))
system.cpu.dcache.tags.avgOccs::switch_cpus_1.data     0.999987                       # Average percentage of cache occupancy ((Ratio/Tick))
system.cpu.dcache.tags.avgOccs::total               1                       # Average percentage of cache occupancy ((Ratio/Tick))
system.cpu.dcache.tags.occupanciesTaskId::1024          256                       # Occupied blocks per task id (Count)
system.cpu.dcache.tags.ageTaskId_1024::0          256                       # Occupied blocks per task id, per block age (Count)
system.cpu.dcache.tags.ratioOccsTaskId::1024            1                       # Ratio of occupied blocks and all blocks, per task id (Ratio)
system.cpu.dcache.tags.tagAccesses          119212844                       # Number of tag accesses (Count)
system.cpu.dcache.tags.dataAccesses         119212844                       # Number of data accesses (Count)
system.cpu.dcache.tags.power_state.pwrStateResidencyTicks::UNDEFINED 891763994500                       # Cumulative time (in ticks) in various power states (Tick)
system.cpu.exec_context.thread_0.numInsts            0                       # Number of instructions committed (Count)
system.cpu.exec_context.thread_0.numOps             0                       # Number of ops (including micro ops) committed (Count)
system.cpu.exec_context.thread_0.numIntAluAccesses            0                       # Number of integer alu accesses (Count)
system.cpu.exec_context.thread_0.numFpAluAccesses            0                       # Number of float alu accesses (Count)
system.cpu.exec_context.thread_0.numVecAluAccesses            0                       # Number of vector alu accesses (Count)
system.cpu.exec_context.thread_0.numCallsReturns            0                       # Number of times a function call or return occured (Count)
system.cpu.exec_context.thread_0.numCondCtrlInsts            0                       # Number of instructions that are conditional controls (Count)
system.cpu.exec_context.thread_0.numIntInsts            0                       # Number of integer instructions (Count)
system.cpu.exec_context.thread_0.numFpInsts            0                       # Number of float instructions (Count)
system.cpu.exec_context.thread_0.numVecInsts            0                       # Number of vector instructions (Count)
system.cpu.exec_context.thread_0.numIntRegReads            0                       # Number of times the integer registers were read (Count)
system.cpu.exec_context.thread_0.numIntRegWrites            0                       # Number of times the integer registers were written (Count)
system.cpu.exec_context.thread_0.numFpRegReads            0                       # Number of times the floating registers were read (Count)
system.cpu.exec_context.thread_0.numFpRegWrites            0                       # Number of times the floating registers were written (Count)
system.cpu.exec_context.thread_0.numVecRegReads            0                       # Number of times the vector registers were read (Count)
system.cpu.exec_context.thread_0.numVecRegWrites            0                       # Number of times the vector registers were written (Count)
system.cpu.exec_context.thread_0.numVecPredRegReads            0                       # Number of times the predicate registers were read (Count)
system.cpu.exec_context.thread_0.numVecPredRegWrites            0                       # Number of times the predicate registers were written (Count)
system.cpu.exec_context.thread_0.numMemRefs            0                       # Number of memory refs (Count)
system.cpu.exec_context.thread_0.numLoadInsts            0                       # Number of load instructions (Count)
system.cpu.exec_context.thread_0.numStoreInsts            0                       # Number of store instructions (Count)
system.cpu.exec_context.thread_0.numIdleCycles            0                       # Number of idle cycles (Cycle)
system.cpu.exec_context.thread_0.numBusyCycles            0                       # Number of busy cycles (Cycle)
system.cpu.exec_context.thread_0.notIdleFraction            1                       # Percentage of non-idle cycles (Ratio)
system.cpu.exec_context.thread_0.idleFraction            0                       # Percentage of idle cycles (Ratio)
system.cpu.exec_context.thread_0.statExecutedInstType::No_OpClass            0                       # Class of executed instruction. (Count)
system.cpu.exec_context.thread_0.statExecutedInstType::IntAlu            0                       # Class of executed instruction. (Count)
system.cpu.exec_context.thread_0.statExecutedInstType::IntMult            0                       # Class of executed instruction. (Count)
system.cpu.exec_context.thread_0.statExecutedInstType::IntDiv            0                       # Class of executed instruction. (Count)
system.cpu.exec_context.thread_0.statExecutedInstType::FloatAdd            0                       # Class of executed instruction. (Count)
system.cpu.exec_context.thread_0.statExecutedInstType::FloatCmp            0                       # Class of executed instruction. (Count)
system.cpu.exec_context.thread_0.statExecutedInstType::FloatCvt            0                       # Class of executed instruction. (Count)
system.cpu.exec_context.thread_0.statExecutedInstType::FloatMult            0                       # Class of executed instruction. (Count)
system.cpu.exec_context.thread_0.statExecutedInstType::FloatMultAcc            0                       # Class of executed instruction. (Count)
system.cpu.exec_context.thread_0.statExecutedInstType::FloatDiv            0                       # Class of executed instruction. (Count)
system.cpu.exec_context.thread_0.statExecutedInstType::FloatMisc            0                       # Class of executed instruction. (Count)
system.cpu.exec_context.thread_0.statExecutedInstType::FloatSqrt            0                       # Class of executed instruction. (Count)
system.cpu.exec_context.thread_0.statExecutedInstType::SimdAdd            0                       # Class of executed instruction. (Count)
system.cpu.exec_context.thread_0.statExecutedInstType::SimdAddAcc            0                       # Class of executed instruction. (Count)
system.cpu.exec_context.thread_0.statExecutedInstType::SimdAlu            0                       # Class of executed instruction. (Count)
system.cpu.exec_context.thread_0.statExecutedInstType::SimdCmp            0                       # Class of executed instruction. (Count)
system.cpu.exec_context.thread_0.statExecutedInstType::SimdCvt            0                       # Class of executed instruction. (Count)
system.cpu.exec_context.thread_0.statExecutedInstType::SimdMisc            0                       # Class of executed instruction. (Count)
system.cpu.exec_context.thread_0.statExecutedInstType::SimdMult            0                       # Class of executed instruction. (Count)
system.cpu.exec_context.thread_0.statExecutedInstType::SimdMultAcc            0                       # Class of executed instruction. (Count)
system.cpu.exec_context.thread_0.statExecutedInstType::SimdShift            0                       # Class of executed instruction. (Count)
system.cpu.exec_context.thread_0.statExecutedInstType::SimdShiftAcc            0                       # Class of executed instruction. (Count)
system.cpu.exec_context.thread_0.statExecutedInstType::SimdDiv            0                       # Class of executed instruction. (Count)
system.cpu.exec_context.thread_0.statExecutedInstType::SimdSqrt            0                       # Class of executed instruction. (Count)
system.cpu.exec_context.thread_0.statExecutedInstType::SimdFloatAdd            0                       # Class of executed instruction. (Count)
system.cpu.exec_context.thread_0.statExecutedInstType::SimdFloatAlu            0                       # Class of executed instruction. (Count)
system.cpu.exec_context.thread_0.statExecutedInstType::SimdFloatCmp            0                       # Class of executed instruction. (Count)
system.cpu.exec_context.thread_0.statExecutedInstType::SimdFloatCvt            0                       # Class of executed instruction. (Count)
system.cpu.exec_context.thread_0.statExecutedInstType::SimdFloatDiv            0                       # Class of executed instruction. (Count)
system.cpu.exec_context.thread_0.statExecutedInstType::SimdFloatMisc            0                       # Class of executed instruction. (Count)
system.cpu.exec_context.thread_0.statExecutedInstType::SimdFloatMult            0                       # Class of executed instruction. (Count)
system.cpu.exec_context.thread_0.statExecutedInstType::SimdFloatMultAcc            0                       # Class of executed instruction. (Count)
system.cpu.exec_context.thread_0.statExecutedInstType::SimdFloatSqrt            0                       # Class of executed instruction. (Count)
system.cpu.exec_context.thread_0.statExecutedInstType::SimdReduceAdd            0                       # Class of executed instruction. (Count)
system.cpu.exec_context.thread_0.statExecutedInstType::SimdReduceAlu            0                       # Class of executed instruction. (Count)
system.cpu.exec_context.thread_0.statExecutedInstType::SimdReduceCmp            0                       # Class of executed instruction. (Count)
system.cpu.exec_context.thread_0.statExecutedInstType::SimdFloatReduceAdd            0                       # Class of executed instruction. (Count)
system.cpu.exec_context.thread_0.statExecutedInstType::SimdFloatReduceCmp            0                       # Class of executed instruction. (Count)
system.cpu.exec_context.thread_0.statExecutedInstType::SimdAes            0                       # Class of executed instruction. (Count)
system.cpu.exec_context.thread_0.statExecutedInstType::SimdAesMix            0                       # Class of executed instruction. (Count)
system.cpu.exec_context.thread_0.statExecutedInstType::SimdSha1Hash            0                       # Class of executed instruction. (Count)
system.cpu.exec_context.thread_0.statExecutedInstType::SimdSha1Hash2            0                       # Class of executed instruction. (Count)
system.cpu.exec_context.thread_0.statExecutedInstType::SimdSha256Hash            0                       # Class of executed instruction. (Count)
system.cpu.exec_context.thread_0.statExecutedInstType::SimdSha256Hash2            0                       # Class of executed instruction. (Count)
system.cpu.exec_context.thread_0.statExecutedInstType::SimdShaSigma2            0                       # Class of executed instruction. (Count)
system.cpu.exec_context.thread_0.statExecutedInstType::SimdShaSigma3            0                       # Class of executed instruction. (Count)
system.cpu.exec_context.thread_0.statExecutedInstType::SimdPredAlu            0                       # Class of executed instruction. (Count)
system.cpu.exec_context.thread_0.statExecutedInstType::MemRead            0                       # Class of executed instruction. (Count)
system.cpu.exec_context.thread_0.statExecutedInstType::MemWrite            0                       # Class of executed instruction. (Count)
system.cpu.exec_context.thread_0.statExecutedInstType::FloatMemRead            0                       # Class of executed instruction. (Count)
system.cpu.exec_context.thread_0.statExecutedInstType::FloatMemWrite            0                       # Class of executed instruction. (Count)
system.cpu.exec_context.thread_0.statExecutedInstType::IprAccess            0                       # Class of executed instruction. (Count)
system.cpu.exec_context.thread_0.statExecutedInstType::InstPrefetch            0                       # Class of executed instruction. (Count)
system.cpu.exec_context.thread_0.statExecutedInstType::total            0                       # Class of executed instruction. (Count)
system.cpu.icache.demandHits::switch_cpus_1.inst     29603788                       # number of demand (read+write) hits (Count)
system.cpu.icache.demandHits::total          29603788                       # number of demand (read+write) hits (Count)
system.cpu.icache.overallHits::switch_cpus_1.inst     29603788                       # number of overall hits (Count)
system.cpu.icache.overallHits::total         29603788                       # number of overall hits (Count)
system.cpu.icache.demandMisses::switch_cpus_1.inst           24                       # number of demand (read+write) misses (Count)
system.cpu.icache.demandMisses::total              24                       # number of demand (read+write) misses (Count)
system.cpu.icache.overallMisses::switch_cpus_1.inst           24                       # number of overall misses (Count)
system.cpu.icache.overallMisses::total             24                       # number of overall misses (Count)
system.cpu.icache.demandMissLatency::switch_cpus_1.inst      2274500                       # number of demand (read+write) miss ticks (Tick)
system.cpu.icache.demandMissLatency::total      2274500                       # number of demand (read+write) miss ticks (Tick)
system.cpu.icache.overallMissLatency::switch_cpus_1.inst      2274500                       # number of overall miss ticks (Tick)
system.cpu.icache.overallMissLatency::total      2274500                       # number of overall miss ticks (Tick)
system.cpu.icache.demandAccesses::switch_cpus_1.inst     29603812                       # number of demand (read+write) accesses (Count)
system.cpu.icache.demandAccesses::total      29603812                       # number of demand (read+write) accesses (Count)
system.cpu.icache.overallAccesses::switch_cpus_1.inst     29603812                       # number of overall (read+write) accesses (Count)
system.cpu.icache.overallAccesses::total     29603812                       # number of overall (read+write) accesses (Count)
system.cpu.icache.demandMissRate::switch_cpus_1.inst     0.000001                       # miss rate for demand accesses (Ratio)
system.cpu.icache.demandMissRate::total      0.000001                       # miss rate for demand accesses (Ratio)
system.cpu.icache.overallMissRate::switch_cpus_1.inst     0.000001                       # miss rate for overall accesses (Ratio)
system.cpu.icache.overallMissRate::total     0.000001                       # miss rate for overall accesses (Ratio)
system.cpu.icache.demandAvgMissLatency::switch_cpus_1.inst 94770.833333                       # average overall miss latency ((Cycle/Count))
system.cpu.icache.demandAvgMissLatency::total 94770.833333                       # average overall miss latency ((Cycle/Count))
system.cpu.icache.overallAvgMissLatency::switch_cpus_1.inst 94770.833333                       # average overall miss latency ((Cycle/Count))
system.cpu.icache.overallAvgMissLatency::total 94770.833333                       # average overall miss latency ((Cycle/Count))
system.cpu.icache.blockedCycles::no_mshrs            0                       # number of cycles access was blocked (Cycle)
system.cpu.icache.blockedCycles::no_targets            0                       # number of cycles access was blocked (Cycle)
system.cpu.icache.blockedCauses::no_mshrs            0                       # number of times access was blocked (Count)
system.cpu.icache.blockedCauses::no_targets            0                       # number of times access was blocked (Count)
system.cpu.icache.avgBlocked::no_mshrs            nan                       # average number of cycles each access was blocked ((Cycle/Count))
system.cpu.icache.avgBlocked::no_targets          nan                       # average number of cycles each access was blocked ((Cycle/Count))
system.cpu.icache.writebacks::writebacks           24                       # number of writebacks (Count)
system.cpu.icache.writebacks::total                24                       # number of writebacks (Count)
system.cpu.icache.demandMshrMisses::switch_cpus_1.inst           24                       # number of demand (read+write) MSHR misses (Count)
system.cpu.icache.demandMshrMisses::total           24                       # number of demand (read+write) MSHR misses (Count)
system.cpu.icache.overallMshrMisses::switch_cpus_1.inst           24                       # number of overall MSHR misses (Count)
system.cpu.icache.overallMshrMisses::total           24                       # number of overall MSHR misses (Count)
system.cpu.icache.demandMshrMissLatency::switch_cpus_1.inst      2250500                       # number of demand (read+write) MSHR miss ticks (Tick)
system.cpu.icache.demandMshrMissLatency::total      2250500                       # number of demand (read+write) MSHR miss ticks (Tick)
system.cpu.icache.overallMshrMissLatency::switch_cpus_1.inst      2250500                       # number of overall MSHR miss ticks (Tick)
system.cpu.icache.overallMshrMissLatency::total      2250500                       # number of overall MSHR miss ticks (Tick)
system.cpu.icache.demandMshrMissRate::switch_cpus_1.inst     0.000001                       # mshr miss ratio for demand accesses (Ratio)
system.cpu.icache.demandMshrMissRate::total     0.000001                       # mshr miss ratio for demand accesses (Ratio)
system.cpu.icache.overallMshrMissRate::switch_cpus_1.inst     0.000001                       # mshr miss ratio for overall accesses (Ratio)
system.cpu.icache.overallMshrMissRate::total     0.000001                       # mshr miss ratio for overall accesses (Ratio)
system.cpu.icache.demandAvgMshrMissLatency::switch_cpus_1.inst 93770.833333                       # average overall mshr miss latency ((Cycle/Count))
system.cpu.icache.demandAvgMshrMissLatency::total 93770.833333                       # average overall mshr miss latency ((Cycle/Count))
system.cpu.icache.overallAvgMshrMissLatency::switch_cpus_1.inst 93770.833333                       # average overall mshr miss latency ((Cycle/Count))
system.cpu.icache.overallAvgMshrMissLatency::total 93770.833333                       # average overall mshr miss latency ((Cycle/Count))
system.cpu.icache.replacements                     24                       # number of replacements (Count)
system.cpu.icache.ReadReq.hits::switch_cpus_1.inst     29603788                       # number of ReadReq hits (Count)
system.cpu.icache.ReadReq.hits::total        29603788                       # number of ReadReq hits (Count)
system.cpu.icache.ReadReq.misses::switch_cpus_1.inst           24                       # number of ReadReq misses (Count)
system.cpu.icache.ReadReq.misses::total            24                       # number of ReadReq misses (Count)
system.cpu.icache.ReadReq.missLatency::switch_cpus_1.inst      2274500                       # number of ReadReq miss ticks (Tick)
system.cpu.icache.ReadReq.missLatency::total      2274500                       # number of ReadReq miss ticks (Tick)
system.cpu.icache.ReadReq.accesses::switch_cpus_1.inst     29603812                       # number of ReadReq accesses(hits+misses) (Count)
system.cpu.icache.ReadReq.accesses::total     29603812                       # number of ReadReq accesses(hits+misses) (Count)
system.cpu.icache.ReadReq.missRate::switch_cpus_1.inst     0.000001                       # miss rate for ReadReq accesses (Ratio)
system.cpu.icache.ReadReq.missRate::total     0.000001                       # miss rate for ReadReq accesses (Ratio)
system.cpu.icache.ReadReq.avgMissLatency::switch_cpus_1.inst 94770.833333                       # average ReadReq miss latency ((Tick/Count))
system.cpu.icache.ReadReq.avgMissLatency::total 94770.833333                       # average ReadReq miss latency ((Tick/Count))
system.cpu.icache.ReadReq.mshrMisses::switch_cpus_1.inst           24                       # number of ReadReq MSHR misses (Count)
system.cpu.icache.ReadReq.mshrMisses::total           24                       # number of ReadReq MSHR misses (Count)
system.cpu.icache.ReadReq.mshrMissLatency::switch_cpus_1.inst      2250500                       # number of ReadReq MSHR miss ticks (Tick)
system.cpu.icache.ReadReq.mshrMissLatency::total      2250500                       # number of ReadReq MSHR miss ticks (Tick)
system.cpu.icache.ReadReq.mshrMissRate::switch_cpus_1.inst     0.000001                       # mshr miss rate for ReadReq accesses (Ratio)
system.cpu.icache.ReadReq.mshrMissRate::total     0.000001                       # mshr miss rate for ReadReq accesses (Ratio)
system.cpu.icache.ReadReq.avgMshrMissLatency::switch_cpus_1.inst 93770.833333                       # average ReadReq mshr miss latency ((Tick/Count))
system.cpu.icache.ReadReq.avgMshrMissLatency::total 93770.833333                       # average ReadReq mshr miss latency ((Tick/Count))
system.cpu.icache.power_state.pwrStateResidencyTicks::UNDEFINED 891763994500                       # Cumulative time (in ticks) in various power states (Tick)
system.cpu.icache.tags.tagsInUse                  256                       # Average ticks per tags in use ((Tick/Count))
system.cpu.icache.tags.totalRefs            361568116                       # Total number of references to valid blocks. (Count)
system.cpu.icache.tags.sampledRefs                280                       # Sample count of references to valid blocks. (Count)
system.cpu.icache.tags.avgRefs           1291314.700000                       # Average number of references to valid blocks. ((Count/Count))
system.cpu.icache.tags.warmupTick                   0                       # The tick when the warmup percentage was hit. (Tick)
system.cpu.icache.tags.occupancies::cpu.inst   227.679446                       # Average occupied blocks per tick, per requestor ((Count/Tick))
system.cpu.icache.tags.occupancies::switch_cpus.inst           16                       # Average occupied blocks per tick, per requestor ((Count/Tick))
system.cpu.icache.tags.occupancies::switch_cpus_1.inst    12.320554                       # Average occupied blocks per tick, per requestor ((Count/Tick))
system.cpu.icache.tags.avgOccs::cpu.inst     0.889373                       # Average percentage of cache occupancy ((Ratio/Tick))
system.cpu.icache.tags.avgOccs::switch_cpus.inst     0.062500                       # Average percentage of cache occupancy ((Ratio/Tick))
system.cpu.icache.tags.avgOccs::switch_cpus_1.inst     0.048127                       # Average percentage of cache occupancy ((Ratio/Tick))
system.cpu.icache.tags.avgOccs::total               1                       # Average percentage of cache occupancy ((Ratio/Tick))
system.cpu.icache.tags.occupanciesTaskId::1024          256                       # Occupied blocks per task id (Count)
system.cpu.icache.tags.ageTaskId_1024::4          256                       # Occupied blocks per task id, per block age (Count)
system.cpu.icache.tags.ratioOccsTaskId::1024            1                       # Ratio of occupied blocks and all blocks, per task id (Ratio)
system.cpu.icache.tags.tagAccesses           59207648                       # Number of tag accesses (Count)
system.cpu.icache.tags.dataAccesses          59207648                       # Number of data accesses (Count)
system.cpu.icache.tags.power_state.pwrStateResidencyTicks::UNDEFINED 891763994500                       # Cumulative time (in ticks) in various power states (Tick)
system.cpu.mmu.dtb.instHits                         0                       # ITB inst hits (Count)
system.cpu.mmu.dtb.instMisses                       0                       # ITB inst misses (Count)
system.cpu.mmu.dtb.readHits                         0                       # DTB read hits (Count)
system.cpu.mmu.dtb.readMisses                       0                       # DTB read misses (Count)
system.cpu.mmu.dtb.writeHits                        0                       # DTB write hits (Count)
system.cpu.mmu.dtb.writeMisses                      0                       # DTB write misses (Count)
system.cpu.mmu.dtb.inserts                          0                       # Number of times an entry is inserted into the TLB (Count)
system.cpu.mmu.dtb.flushTlb                         0                       # Number of times complete TLB was flushed (Count)
system.cpu.mmu.dtb.flushTlbMva                      0                       # Number of times TLB was flushed by MVA (Count)
system.cpu.mmu.dtb.flushTlbMvaAsid                  0                       # Number of times TLB was flushed by MVA & ASID (Count)
system.cpu.mmu.dtb.flushTlbAsid                     0                       # Number of times TLB was flushed by ASID (Count)
system.cpu.mmu.dtb.flushedEntries                   0                       # Number of entries that have been flushed from TLB (Count)
system.cpu.mmu.dtb.alignFaults                      0                       # Number of TLB faults due to alignment restrictions (Count)
system.cpu.mmu.dtb.prefetchFaults                   0                       # Number of TLB faults due to prefetch (Count)
system.cpu.mmu.dtb.domainFaults                     0                       # Number of TLB faults due to domain restrictions (Count)
system.cpu.mmu.dtb.permsFaults                      0                       # Number of TLB faults due to permissions restrictions (Count)
system.cpu.mmu.dtb.readAccesses                     0                       # DTB read accesses (Count)
system.cpu.mmu.dtb.writeAccesses                    0                       # DTB write accesses (Count)
system.cpu.mmu.dtb.instAccesses                     0                       # ITB inst accesses (Count)
system.cpu.mmu.dtb.hits                             0                       # Total TLB (inst and data) hits (Count)
system.cpu.mmu.dtb.misses                           0                       # Total TLB (inst and data) misses (Count)
system.cpu.mmu.dtb.accesses                         0                       # Total TLB (inst and data) accesses (Count)
system.cpu.mmu.dtb_walker.walks                     0                       # Table walker walks requested (Count)
system.cpu.mmu.dtb_walker.requestOrigin_Requested::Data            0                       # Table walker requests started/completed, data/inst (Count)
system.cpu.mmu.dtb_walker.requestOrigin_Requested::Inst            0                       # Table walker requests started/completed, data/inst (Count)
system.cpu.mmu.dtb_walker.requestOrigin_Requested::total            0                       # Table walker requests started/completed, data/inst (Count)
system.cpu.mmu.dtb_walker.requestOrigin_Completed::Data            0                       # Table walker requests started/completed, data/inst (Count)
system.cpu.mmu.dtb_walker.requestOrigin_Completed::Inst            0                       # Table walker requests started/completed, data/inst (Count)
system.cpu.mmu.dtb_walker.requestOrigin_Completed::total            0                       # Table walker requests started/completed, data/inst (Count)
system.cpu.mmu.dtb_walker.requestOrigin::total            0                       # Table walker requests started/completed, data/inst (Count)
system.cpu.mmu.dtb_walker.power_state.pwrStateResidencyTicks::UNDEFINED 891763994500                       # Cumulative time (in ticks) in various power states (Tick)
system.cpu.mmu.itb.instHits                         0                       # ITB inst hits (Count)
system.cpu.mmu.itb.instMisses                       0                       # ITB inst misses (Count)
system.cpu.mmu.itb.readHits                         0                       # DTB read hits (Count)
system.cpu.mmu.itb.readMisses                       0                       # DTB read misses (Count)
system.cpu.mmu.itb.writeHits                        0                       # DTB write hits (Count)
system.cpu.mmu.itb.writeMisses                      0                       # DTB write misses (Count)
system.cpu.mmu.itb.inserts                          0                       # Number of times an entry is inserted into the TLB (Count)
system.cpu.mmu.itb.flushTlb                         0                       # Number of times complete TLB was flushed (Count)
system.cpu.mmu.itb.flushTlbMva                      0                       # Number of times TLB was flushed by MVA (Count)
system.cpu.mmu.itb.flushTlbMvaAsid                  0                       # Number of times TLB was flushed by MVA & ASID (Count)
system.cpu.mmu.itb.flushTlbAsid                     0                       # Number of times TLB was flushed by ASID (Count)
system.cpu.mmu.itb.flushedEntries                   0                       # Number of entries that have been flushed from TLB (Count)
system.cpu.mmu.itb.alignFaults                      0                       # Number of TLB faults due to alignment restrictions (Count)
system.cpu.mmu.itb.prefetchFaults                   0                       # Number of TLB faults due to prefetch (Count)
system.cpu.mmu.itb.domainFaults                     0                       # Number of TLB faults due to domain restrictions (Count)
system.cpu.mmu.itb.permsFaults                      0                       # Number of TLB faults due to permissions restrictions (Count)
system.cpu.mmu.itb.readAccesses                     0                       # DTB read accesses (Count)
system.cpu.mmu.itb.writeAccesses                    0                       # DTB write accesses (Count)
system.cpu.mmu.itb.instAccesses                     0                       # ITB inst accesses (Count)
system.cpu.mmu.itb.hits                             0                       # Total TLB (inst and data) hits (Count)
system.cpu.mmu.itb.misses                           0                       # Total TLB (inst and data) misses (Count)
system.cpu.mmu.itb.accesses                         0                       # Total TLB (inst and data) accesses (Count)
system.cpu.mmu.itb_walker.walks                     0                       # Table walker walks requested (Count)
system.cpu.mmu.itb_walker.requestOrigin_Requested::Data            0                       # Table walker requests started/completed, data/inst (Count)
system.cpu.mmu.itb_walker.requestOrigin_Requested::Inst            0                       # Table walker requests started/completed, data/inst (Count)
system.cpu.mmu.itb_walker.requestOrigin_Requested::total            0                       # Table walker requests started/completed, data/inst (Count)
system.cpu.mmu.itb_walker.requestOrigin_Completed::Data            0                       # Table walker requests started/completed, data/inst (Count)
system.cpu.mmu.itb_walker.requestOrigin_Completed::Inst            0                       # Table walker requests started/completed, data/inst (Count)
system.cpu.mmu.itb_walker.requestOrigin_Completed::total            0                       # Table walker requests started/completed, data/inst (Count)
system.cpu.mmu.itb_walker.requestOrigin::total            0                       # Table walker requests started/completed, data/inst (Count)
system.cpu.mmu.itb_walker.power_state.pwrStateResidencyTicks::UNDEFINED 891763994500                       # Cumulative time (in ticks) in various power states (Tick)
system.cpu.mmu.stage2_dtb.instHits                  0                       # ITB inst hits (Count)
system.cpu.mmu.stage2_dtb.instMisses                0                       # ITB inst misses (Count)
system.cpu.mmu.stage2_dtb.readHits                  0                       # DTB read hits (Count)
system.cpu.mmu.stage2_dtb.readMisses                0                       # DTB read misses (Count)
system.cpu.mmu.stage2_dtb.writeHits                 0                       # DTB write hits (Count)
system.cpu.mmu.stage2_dtb.writeMisses               0                       # DTB write misses (Count)
system.cpu.mmu.stage2_dtb.inserts                   0                       # Number of times an entry is inserted into the TLB (Count)
system.cpu.mmu.stage2_dtb.flushTlb                  0                       # Number of times complete TLB was flushed (Count)
system.cpu.mmu.stage2_dtb.flushTlbMva               0                       # Number of times TLB was flushed by MVA (Count)
system.cpu.mmu.stage2_dtb.flushTlbMvaAsid            0                       # Number of times TLB was flushed by MVA & ASID (Count)
system.cpu.mmu.stage2_dtb.flushTlbAsid              0                       # Number of times TLB was flushed by ASID (Count)
system.cpu.mmu.stage2_dtb.flushedEntries            0                       # Number of entries that have been flushed from TLB (Count)
system.cpu.mmu.stage2_dtb.alignFaults               0                       # Number of TLB faults due to alignment restrictions (Count)
system.cpu.mmu.stage2_dtb.prefetchFaults            0                       # Number of TLB faults due to prefetch (Count)
system.cpu.mmu.stage2_dtb.domainFaults              0                       # Number of TLB faults due to domain restrictions (Count)
system.cpu.mmu.stage2_dtb.permsFaults               0                       # Number of TLB faults due to permissions restrictions (Count)
system.cpu.mmu.stage2_dtb.readAccesses              0                       # DTB read accesses (Count)
system.cpu.mmu.stage2_dtb.writeAccesses             0                       # DTB write accesses (Count)
system.cpu.mmu.stage2_dtb.instAccesses              0                       # ITB inst accesses (Count)
system.cpu.mmu.stage2_dtb.hits                      0                       # Total TLB (inst and data) hits (Count)
system.cpu.mmu.stage2_dtb.misses                    0                       # Total TLB (inst and data) misses (Count)
system.cpu.mmu.stage2_dtb.accesses                  0                       # Total TLB (inst and data) accesses (Count)
system.cpu.mmu.stage2_dtb_walker.walks              0                       # Table walker walks requested (Count)
system.cpu.mmu.stage2_dtb_walker.requestOrigin_Requested::Data            0                       # Table walker requests started/completed, data/inst (Count)
system.cpu.mmu.stage2_dtb_walker.requestOrigin_Requested::Inst            0                       # Table walker requests started/completed, data/inst (Count)
system.cpu.mmu.stage2_dtb_walker.requestOrigin_Requested::total            0                       # Table walker requests started/completed, data/inst (Count)
system.cpu.mmu.stage2_dtb_walker.requestOrigin_Completed::Data            0                       # Table walker requests started/completed, data/inst (Count)
system.cpu.mmu.stage2_dtb_walker.requestOrigin_Completed::Inst            0                       # Table walker requests started/completed, data/inst (Count)
system.cpu.mmu.stage2_dtb_walker.requestOrigin_Completed::total            0                       # Table walker requests started/completed, data/inst (Count)
system.cpu.mmu.stage2_dtb_walker.requestOrigin::total            0                       # Table walker requests started/completed, data/inst (Count)
system.cpu.mmu.stage2_dtb_walker.power_state.pwrStateResidencyTicks::UNDEFINED 891763994500                       # Cumulative time (in ticks) in various power states (Tick)
system.cpu.mmu.stage2_itb.instHits                  0                       # ITB inst hits (Count)
system.cpu.mmu.stage2_itb.instMisses                0                       # ITB inst misses (Count)
system.cpu.mmu.stage2_itb.readHits                  0                       # DTB read hits (Count)
system.cpu.mmu.stage2_itb.readMisses                0                       # DTB read misses (Count)
system.cpu.mmu.stage2_itb.writeHits                 0                       # DTB write hits (Count)
system.cpu.mmu.stage2_itb.writeMisses               0                       # DTB write misses (Count)
system.cpu.mmu.stage2_itb.inserts                   0                       # Number of times an entry is inserted into the TLB (Count)
system.cpu.mmu.stage2_itb.flushTlb                  0                       # Number of times complete TLB was flushed (Count)
system.cpu.mmu.stage2_itb.flushTlbMva               0                       # Number of times TLB was flushed by MVA (Count)
system.cpu.mmu.stage2_itb.flushTlbMvaAsid            0                       # Number of times TLB was flushed by MVA & ASID (Count)
system.cpu.mmu.stage2_itb.flushTlbAsid              0                       # Number of times TLB was flushed by ASID (Count)
system.cpu.mmu.stage2_itb.flushedEntries            0                       # Number of entries that have been flushed from TLB (Count)
system.cpu.mmu.stage2_itb.alignFaults               0                       # Number of TLB faults due to alignment restrictions (Count)
system.cpu.mmu.stage2_itb.prefetchFaults            0                       # Number of TLB faults due to prefetch (Count)
system.cpu.mmu.stage2_itb.domainFaults              0                       # Number of TLB faults due to domain restrictions (Count)
system.cpu.mmu.stage2_itb.permsFaults               0                       # Number of TLB faults due to permissions restrictions (Count)
system.cpu.mmu.stage2_itb.readAccesses              0                       # DTB read accesses (Count)
system.cpu.mmu.stage2_itb.writeAccesses             0                       # DTB write accesses (Count)
system.cpu.mmu.stage2_itb.instAccesses              0                       # ITB inst accesses (Count)
system.cpu.mmu.stage2_itb.hits                      0                       # Total TLB (inst and data) hits (Count)
system.cpu.mmu.stage2_itb.misses                    0                       # Total TLB (inst and data) misses (Count)
system.cpu.mmu.stage2_itb.accesses                  0                       # Total TLB (inst and data) accesses (Count)
system.cpu.mmu.stage2_itb_walker.walks              0                       # Table walker walks requested (Count)
system.cpu.mmu.stage2_itb_walker.requestOrigin_Requested::Data            0                       # Table walker requests started/completed, data/inst (Count)
system.cpu.mmu.stage2_itb_walker.requestOrigin_Requested::Inst            0                       # Table walker requests started/completed, data/inst (Count)
system.cpu.mmu.stage2_itb_walker.requestOrigin_Requested::total            0                       # Table walker requests started/completed, data/inst (Count)
system.cpu.mmu.stage2_itb_walker.requestOrigin_Completed::Data            0                       # Table walker requests started/completed, data/inst (Count)
system.cpu.mmu.stage2_itb_walker.requestOrigin_Completed::Inst            0                       # Table walker requests started/completed, data/inst (Count)
system.cpu.mmu.stage2_itb_walker.requestOrigin_Completed::total            0                       # Table walker requests started/completed, data/inst (Count)
system.cpu.mmu.stage2_itb_walker.requestOrigin::total            0                       # Table walker requests started/completed, data/inst (Count)
system.cpu.mmu.stage2_itb_walker.power_state.pwrStateResidencyTicks::UNDEFINED 891763994500                       # Cumulative time (in ticks) in various power states (Tick)
system.cpu.power_state.pwrStateResidencyTicks::OFF 389517791000                       # Cumulative time (in ticks) in various power states (Tick)
system.cpu.thread_0.numInsts                        0                       # Number of Instructions committed (Count)
system.cpu.thread_0.numOps                          0                       # Number of Ops committed (Count)
system.cpu.thread_0.numMemRefs                      0                       # Number of Memory References (Count)
system.cpu.workload.numSyscalls                     0                       # Number of system calls (Count)
system.cpu_clk_domain.clock                       500                       # Clock period in ticks (Tick)
system.cpu_voltage_domain.voltage                   1                       # Voltage in Volts (Volt)
system.l2.demandHits::switch_cpus_1.data       186266                       # number of demand (read+write) hits (Count)
system.l2.demandHits::total                    186266                       # number of demand (read+write) hits (Count)
system.l2.overallHits::switch_cpus_1.data       186266                       # number of overall hits (Count)
system.l2.overallHits::total                   186266                       # number of overall hits (Count)
system.l2.demandMisses::switch_cpus_1.inst           24                       # number of demand (read+write) misses (Count)
system.l2.demandMisses::switch_cpus_1.data      6745616                       # number of demand (read+write) misses (Count)
system.l2.demandMisses::total                 6745640                       # number of demand (read+write) misses (Count)
system.l2.overallMisses::switch_cpus_1.inst           24                       # number of overall misses (Count)
system.l2.overallMisses::switch_cpus_1.data      6745616                       # number of overall misses (Count)
system.l2.overallMisses::total                6745640                       # number of overall misses (Count)
system.l2.demandMissLatency::switch_cpus_1.inst      2214500                       # number of demand (read+write) miss ticks (Tick)
system.l2.demandMissLatency::switch_cpus_1.data 551451621500                       # number of demand (read+write) miss ticks (Tick)
system.l2.demandMissLatency::total       551453836000                       # number of demand (read+write) miss ticks (Tick)
system.l2.overallMissLatency::switch_cpus_1.inst      2214500                       # number of overall miss ticks (Tick)
system.l2.overallMissLatency::switch_cpus_1.data 551451621500                       # number of overall miss ticks (Tick)
system.l2.overallMissLatency::total      551453836000                       # number of overall miss ticks (Tick)
system.l2.demandAccesses::switch_cpus_1.inst           24                       # number of demand (read+write) accesses (Count)
system.l2.demandAccesses::switch_cpus_1.data      6931882                       # number of demand (read+write) accesses (Count)
system.l2.demandAccesses::total               6931906                       # number of demand (read+write) accesses (Count)
system.l2.overallAccesses::switch_cpus_1.inst           24                       # number of overall (read+write) accesses (Count)
system.l2.overallAccesses::switch_cpus_1.data      6931882                       # number of overall (read+write) accesses (Count)
system.l2.overallAccesses::total              6931906                       # number of overall (read+write) accesses (Count)
system.l2.demandMissRate::switch_cpus_1.inst            1                       # miss rate for demand accesses (Ratio)
system.l2.demandMissRate::switch_cpus_1.data     0.973129                       # miss rate for demand accesses (Ratio)
system.l2.demandMissRate::total              0.973129                       # miss rate for demand accesses (Ratio)
system.l2.overallMissRate::switch_cpus_1.inst            1                       # miss rate for overall accesses (Ratio)
system.l2.overallMissRate::switch_cpus_1.data     0.973129                       # miss rate for overall accesses (Ratio)
system.l2.overallMissRate::total             0.973129                       # miss rate for overall accesses (Ratio)
system.l2.demandAvgMissLatency::switch_cpus_1.inst 92270.833333                       # average overall miss latency ((Cycle/Count))
system.l2.demandAvgMissLatency::switch_cpus_1.data 81749.631390                       # average overall miss latency ((Cycle/Count))
system.l2.demandAvgMissLatency::total    81749.668823                       # average overall miss latency ((Cycle/Count))
system.l2.overallAvgMissLatency::switch_cpus_1.inst 92270.833333                       # average overall miss latency ((Cycle/Count))
system.l2.overallAvgMissLatency::switch_cpus_1.data 81749.631390                       # average overall miss latency ((Cycle/Count))
system.l2.overallAvgMissLatency::total   81749.668823                       # average overall miss latency ((Cycle/Count))
system.l2.blockedCycles::no_mshrs                   0                       # number of cycles access was blocked (Cycle)
system.l2.blockedCycles::no_targets                 0                       # number of cycles access was blocked (Cycle)
system.l2.blockedCauses::no_mshrs                   0                       # number of times access was blocked (Count)
system.l2.blockedCauses::no_targets                 0                       # number of times access was blocked (Count)
system.l2.avgBlocked::no_mshrs                    nan                       # average number of cycles each access was blocked ((Cycle/Count))
system.l2.avgBlocked::no_targets                  nan                       # average number of cycles each access was blocked ((Cycle/Count))
system.l2.writebacks::writebacks              1830870                       # number of writebacks (Count)
system.l2.writebacks::total                   1830870                       # number of writebacks (Count)
system.l2.demandMshrMisses::switch_cpus_1.inst           24                       # number of demand (read+write) MSHR misses (Count)
system.l2.demandMshrMisses::switch_cpus_1.data      6745616                       # number of demand (read+write) MSHR misses (Count)
system.l2.demandMshrMisses::total             6745640                       # number of demand (read+write) MSHR misses (Count)
system.l2.overallMshrMisses::switch_cpus_1.inst           24                       # number of overall MSHR misses (Count)
system.l2.overallMshrMisses::switch_cpus_1.data      6745616                       # number of overall MSHR misses (Count)
system.l2.overallMshrMisses::total            6745640                       # number of overall MSHR misses (Count)
system.l2.demandMshrMissLatency::switch_cpus_1.inst      1974500                       # number of demand (read+write) MSHR miss ticks (Tick)
system.l2.demandMshrMissLatency::switch_cpus_1.data 483995471500                       # number of demand (read+write) MSHR miss ticks (Tick)
system.l2.demandMshrMissLatency::total   483997446000                       # number of demand (read+write) MSHR miss ticks (Tick)
system.l2.overallMshrMissLatency::switch_cpus_1.inst      1974500                       # number of overall MSHR miss ticks (Tick)
system.l2.overallMshrMissLatency::switch_cpus_1.data 483995471500                       # number of overall MSHR miss ticks (Tick)
system.l2.overallMshrMissLatency::total  483997446000                       # number of overall MSHR miss ticks (Tick)
system.l2.demandMshrMissRate::switch_cpus_1.inst            1                       # mshr miss ratio for demand accesses (Ratio)
system.l2.demandMshrMissRate::switch_cpus_1.data     0.973129                       # mshr miss ratio for demand accesses (Ratio)
system.l2.demandMshrMissRate::total          0.973129                       # mshr miss ratio for demand accesses (Ratio)
system.l2.overallMshrMissRate::switch_cpus_1.inst            1                       # mshr miss ratio for overall accesses (Ratio)
system.l2.overallMshrMissRate::switch_cpus_1.data     0.973129                       # mshr miss ratio for overall accesses (Ratio)
system.l2.overallMshrMissRate::total         0.973129                       # mshr miss ratio for overall accesses (Ratio)
system.l2.demandAvgMshrMissLatency::switch_cpus_1.inst 82270.833333                       # average overall mshr miss latency ((Cycle/Count))
system.l2.demandAvgMshrMissLatency::switch_cpus_1.data 71749.632873                       # average overall mshr miss latency ((Cycle/Count))
system.l2.demandAvgMshrMissLatency::total 71749.670306                       # average overall mshr miss latency ((Cycle/Count))
system.l2.overallAvgMshrMissLatency::switch_cpus_1.inst 82270.833333                       # average overall mshr miss latency ((Cycle/Count))
system.l2.overallAvgMshrMissLatency::switch_cpus_1.data 71749.632873                       # average overall mshr miss latency ((Cycle/Count))
system.l2.overallAvgMshrMissLatency::total 71749.670306                       # average overall mshr miss latency ((Cycle/Count))
system.l2.replacements                        6914812                       # number of replacements (Count)
system.l2.CleanEvict.mshrMisses::writebacks       333573                       # number of CleanEvict MSHR misses (Count)
system.l2.CleanEvict.mshrMisses::total         333573                       # number of CleanEvict MSHR misses (Count)
system.l2.CleanEvict.mshrMissRate::writebacks          inf                       # mshr miss rate for CleanEvict accesses (Ratio)
system.l2.CleanEvict.mshrMissRate::total          inf                       # mshr miss rate for CleanEvict accesses (Ratio)
system.l2.ReadCleanReq.misses::switch_cpus_1.inst           24                       # number of ReadCleanReq misses (Count)
system.l2.ReadCleanReq.misses::total               24                       # number of ReadCleanReq misses (Count)
system.l2.ReadCleanReq.missLatency::switch_cpus_1.inst      2214500                       # number of ReadCleanReq miss ticks (Tick)
system.l2.ReadCleanReq.missLatency::total      2214500                       # number of ReadCleanReq miss ticks (Tick)
system.l2.ReadCleanReq.accesses::switch_cpus_1.inst           24                       # number of ReadCleanReq accesses(hits+misses) (Count)
system.l2.ReadCleanReq.accesses::total             24                       # number of ReadCleanReq accesses(hits+misses) (Count)
system.l2.ReadCleanReq.missRate::switch_cpus_1.inst            1                       # miss rate for ReadCleanReq accesses (Ratio)
system.l2.ReadCleanReq.missRate::total              1                       # miss rate for ReadCleanReq accesses (Ratio)
system.l2.ReadCleanReq.avgMissLatency::switch_cpus_1.inst 92270.833333                       # average ReadCleanReq miss latency ((Tick/Count))
system.l2.ReadCleanReq.avgMissLatency::total 92270.833333                       # average ReadCleanReq miss latency ((Tick/Count))
system.l2.ReadCleanReq.mshrMisses::switch_cpus_1.inst           24                       # number of ReadCleanReq MSHR misses (Count)
system.l2.ReadCleanReq.mshrMisses::total           24                       # number of ReadCleanReq MSHR misses (Count)
system.l2.ReadCleanReq.mshrMissLatency::switch_cpus_1.inst      1974500                       # number of ReadCleanReq MSHR miss ticks (Tick)
system.l2.ReadCleanReq.mshrMissLatency::total      1974500                       # number of ReadCleanReq MSHR miss ticks (Tick)
system.l2.ReadCleanReq.mshrMissRate::switch_cpus_1.inst            1                       # mshr miss rate for ReadCleanReq accesses (Ratio)
system.l2.ReadCleanReq.mshrMissRate::total            1                       # mshr miss rate for ReadCleanReq accesses (Ratio)
system.l2.ReadCleanReq.avgMshrMissLatency::switch_cpus_1.inst 82270.833333                       # average ReadCleanReq mshr miss latency ((Tick/Count))
system.l2.ReadCleanReq.avgMshrMissLatency::total 82270.833333                       # average ReadCleanReq mshr miss latency ((Tick/Count))
system.l2.ReadExReq.misses::switch_cpus_1.data      1828581                       # number of ReadExReq misses (Count)
system.l2.ReadExReq.misses::total             1828581                       # number of ReadExReq misses (Count)
system.l2.ReadExReq.missLatency::switch_cpus_1.data 161588390000                       # number of ReadExReq miss ticks (Tick)
system.l2.ReadExReq.missLatency::total   161588390000                       # number of ReadExReq miss ticks (Tick)
system.l2.ReadExReq.accesses::switch_cpus_1.data      1828581                       # number of ReadExReq accesses(hits+misses) (Count)
system.l2.ReadExReq.accesses::total           1828581                       # number of ReadExReq accesses(hits+misses) (Count)
system.l2.ReadExReq.missRate::switch_cpus_1.data            1                       # miss rate for ReadExReq accesses (Ratio)
system.l2.ReadExReq.missRate::total                 1                       # miss rate for ReadExReq accesses (Ratio)
system.l2.ReadExReq.avgMissLatency::switch_cpus_1.data 88368.188229                       # average ReadExReq miss latency ((Tick/Count))
system.l2.ReadExReq.avgMissLatency::total 88368.188229                       # average ReadExReq miss latency ((Tick/Count))
system.l2.ReadExReq.mshrMisses::switch_cpus_1.data      1828581                       # number of ReadExReq MSHR misses (Count)
system.l2.ReadExReq.mshrMisses::total         1828581                       # number of ReadExReq MSHR misses (Count)
system.l2.ReadExReq.mshrMissLatency::switch_cpus_1.data 143302580000                       # number of ReadExReq MSHR miss ticks (Tick)
system.l2.ReadExReq.mshrMissLatency::total 143302580000                       # number of ReadExReq MSHR miss ticks (Tick)
system.l2.ReadExReq.mshrMissRate::switch_cpus_1.data            1                       # mshr miss rate for ReadExReq accesses (Ratio)
system.l2.ReadExReq.mshrMissRate::total             1                       # mshr miss rate for ReadExReq accesses (Ratio)
system.l2.ReadExReq.avgMshrMissLatency::switch_cpus_1.data 78368.188229                       # average ReadExReq mshr miss latency ((Tick/Count))
system.l2.ReadExReq.avgMshrMissLatency::total 78368.188229                       # average ReadExReq mshr miss latency ((Tick/Count))
system.l2.ReadSharedReq.hits::switch_cpus_1.data       186266                       # number of ReadSharedReq hits (Count)
system.l2.ReadSharedReq.hits::total            186266                       # number of ReadSharedReq hits (Count)
system.l2.ReadSharedReq.misses::switch_cpus_1.data      4917035                       # number of ReadSharedReq misses (Count)
system.l2.ReadSharedReq.misses::total         4917035                       # number of ReadSharedReq misses (Count)
system.l2.ReadSharedReq.missLatency::switch_cpus_1.data 389863231500                       # number of ReadSharedReq miss ticks (Tick)
system.l2.ReadSharedReq.missLatency::total 389863231500                       # number of ReadSharedReq miss ticks (Tick)
system.l2.ReadSharedReq.accesses::switch_cpus_1.data      5103301                       # number of ReadSharedReq accesses(hits+misses) (Count)
system.l2.ReadSharedReq.accesses::total       5103301                       # number of ReadSharedReq accesses(hits+misses) (Count)
system.l2.ReadSharedReq.missRate::switch_cpus_1.data     0.963501                       # miss rate for ReadSharedReq accesses (Ratio)
system.l2.ReadSharedReq.missRate::total      0.963501                       # miss rate for ReadSharedReq accesses (Ratio)
system.l2.ReadSharedReq.avgMissLatency::switch_cpus_1.data 79288.276675                       # average ReadSharedReq miss latency ((Tick/Count))
system.l2.ReadSharedReq.avgMissLatency::total 79288.276675                       # average ReadSharedReq miss latency ((Tick/Count))
system.l2.ReadSharedReq.mshrMisses::switch_cpus_1.data      4917035                       # number of ReadSharedReq MSHR misses (Count)
system.l2.ReadSharedReq.mshrMisses::total      4917035                       # number of ReadSharedReq MSHR misses (Count)
system.l2.ReadSharedReq.mshrMissLatency::switch_cpus_1.data 340692891500                       # number of ReadSharedReq MSHR miss ticks (Tick)
system.l2.ReadSharedReq.mshrMissLatency::total 340692891500                       # number of ReadSharedReq MSHR miss ticks (Tick)
system.l2.ReadSharedReq.mshrMissRate::switch_cpus_1.data     0.963501                       # mshr miss rate for ReadSharedReq accesses (Ratio)
system.l2.ReadSharedReq.mshrMissRate::total     0.963501                       # mshr miss rate for ReadSharedReq accesses (Ratio)
system.l2.ReadSharedReq.avgMshrMissLatency::switch_cpus_1.data 69288.278709                       # average ReadSharedReq mshr miss latency ((Tick/Count))
system.l2.ReadSharedReq.avgMshrMissLatency::total 69288.278709                       # average ReadSharedReq mshr miss latency ((Tick/Count))
system.l2.WritebackClean.hits::writebacks           24                       # number of WritebackClean hits (Count)
system.l2.WritebackClean.hits::total               24                       # number of WritebackClean hits (Count)
system.l2.WritebackClean.accesses::writebacks           24                       # number of WritebackClean accesses(hits+misses) (Count)
system.l2.WritebackClean.accesses::total           24                       # number of WritebackClean accesses(hits+misses) (Count)
system.l2.WritebackDirty.hits::writebacks      1828812                       # number of WritebackDirty hits (Count)
system.l2.WritebackDirty.hits::total          1828812                       # number of WritebackDirty hits (Count)
system.l2.WritebackDirty.accesses::writebacks      1828812                       # number of WritebackDirty accesses(hits+misses) (Count)
system.l2.WritebackDirty.accesses::total      1828812                       # number of WritebackDirty accesses(hits+misses) (Count)
system.l2.power_state.pwrStateResidencyTicks::UNDEFINED 891763994500                       # Cumulative time (in ticks) in various power states (Tick)
system.l2.tags.tagsInUse                        16384                       # Average ticks per tags in use ((Tick/Count))
system.l2.tags.totalRefs                     13562960                       # Total number of references to valid blocks. (Count)
system.l2.tags.sampledRefs                    6931196                       # Sample count of references to valid blocks. (Count)
system.l2.tags.avgRefs                       1.956799                       # Average number of references to valid blocks. ((Count/Count))
system.l2.tags.warmupTick                           0                       # The tick when the warmup percentage was hit. (Tick)
system.l2.tags.occupancies::writebacks      46.911147                       # Average occupied blocks per tick, per requestor ((Count/Tick))
system.l2.tags.occupancies::switch_cpus.data    14.287688                       # Average occupied blocks per tick, per requestor ((Count/Tick))
system.l2.tags.occupancies::switch_cpus_1.inst     0.001959                       # Average occupied blocks per tick, per requestor ((Count/Tick))
system.l2.tags.occupancies::switch_cpus_1.data 16322.799206                       # Average occupied blocks per tick, per requestor ((Count/Tick))
system.l2.tags.avgOccs::writebacks           0.002863                       # Average percentage of cache occupancy ((Ratio/Tick))
system.l2.tags.avgOccs::switch_cpus.data     0.000872                       # Average percentage of cache occupancy ((Ratio/Tick))
system.l2.tags.avgOccs::switch_cpus_1.inst     0.000000                       # Average percentage of cache occupancy ((Ratio/Tick))
system.l2.tags.avgOccs::switch_cpus_1.data     0.996265                       # Average percentage of cache occupancy ((Ratio/Tick))
system.l2.tags.avgOccs::total                       1                       # Average percentage of cache occupancy ((Ratio/Tick))
system.l2.tags.occupanciesTaskId::1024          16384                       # Occupied blocks per task id (Count)
system.l2.tags.ageTaskId_1024::0                  371                       # Occupied blocks per task id, per block age (Count)
system.l2.tags.ageTaskId_1024::1                 3349                       # Occupied blocks per task id, per block age (Count)
system.l2.tags.ageTaskId_1024::2                12662                       # Occupied blocks per task id, per block age (Count)
system.l2.tags.ageTaskId_1024::4                    2                       # Occupied blocks per task id, per block age (Count)
system.l2.tags.ratioOccsTaskId::1024                1                       # Ratio of occupied blocks and all blocks, per task id (Ratio)
system.l2.tags.tagAccesses                  228735772                       # Number of tag accesses (Count)
system.l2.tags.dataAccesses                 228735772                       # Number of data accesses (Count)
system.l2.tags.power_state.pwrStateResidencyTicks::UNDEFINED 891763994500                       # Cumulative time (in ticks) in various power states (Tick)
system.mem_ctrls.avgPriority_writebacks::samples   1830863.00                       # Average QoS priority value for accepted requests (Count)
system.mem_ctrls.avgPriority_switch_cpus_1.inst::samples        24.00                       # Average QoS priority value for accepted requests (Count)
system.mem_ctrls.avgPriority_switch_cpus_1.data::samples   6745364.00                       # Average QoS priority value for accepted requests (Count)
system.mem_ctrls.priorityMinLatency      0.000000018750                       # per QoS priority minimum request to response latency (Second)
system.mem_ctrls.priorityMaxLatency      0.041002716500                       # per QoS priority maximum request to response latency (Second)
system.mem_ctrls.numReadWriteTurnArounds       114367                       # Number of turnarounds from READ to WRITE (Count)
system.mem_ctrls.numWriteReadTurnArounds       114367                       # Number of turnarounds from WRITE to READ (Count)
system.mem_ctrls.numStayReadState            14664919                       # Number of times bus staying in READ state (Count)
system.mem_ctrls.numStayWriteState            1720489                       # Number of times bus staying in WRITE state (Count)
system.mem_ctrls.readReqs                     6745640                       # Number of read requests accepted (Count)
system.mem_ctrls.writeReqs                    1830870                       # Number of write requests accepted (Count)
system.mem_ctrls.readBursts                   6745640                       # Number of controller read bursts, including those serviced by the write queue (Count)
system.mem_ctrls.writeBursts                  1830870                       # Number of controller write bursts, including those merged in the write queue (Count)
system.mem_ctrls.servicedByWrQ                    252                       # Number of controller read bursts serviced by the write queue (Count)
system.mem_ctrls.mergedWrBursts                     7                       # Number of controller write bursts merged with an existing one (Count)
system.mem_ctrls.neitherReadNorWriteReqs            0                       # Number of requests that are neither read nor write (Count)
system.mem_ctrls.avgRdQLen                       2.23                       # Average read queue length when enqueuing ((Count/Tick))
system.mem_ctrls.avgWrQLen                      27.10                       # Average write queue length when enqueuing ((Count/Tick))
system.mem_ctrls.numRdRetry                         0                       # Number of times read queue was full causing retry (Count)
system.mem_ctrls.numWrRetry                         0                       # Number of times write queue was full causing retry (Count)
system.mem_ctrls.readPktSize::0                     0                       # Read request sizes (log2) (Count)
system.mem_ctrls.readPktSize::1                     0                       # Read request sizes (log2) (Count)
system.mem_ctrls.readPktSize::2                     0                       # Read request sizes (log2) (Count)
system.mem_ctrls.readPktSize::3                     0                       # Read request sizes (log2) (Count)
system.mem_ctrls.readPktSize::4                     0                       # Read request sizes (log2) (Count)
system.mem_ctrls.readPktSize::5                     0                       # Read request sizes (log2) (Count)
system.mem_ctrls.readPktSize::6               6745640                       # Read request sizes (log2) (Count)
[...]
system.switch_cpus_1.mmu.itb.alignFaults            0                       # Number of TLB faults due to alignment restrictions (Count)
system.switch_cpus_1.mmu.itb.prefetchFaults            0                       # Number of TLB faults due to prefetch (Count)
system.switch_cpus_1.mmu.itb.domainFaults            0                       # Number of TLB faults due to domain restrictions (Count)
system.switch_cpus_1.mmu.itb.permsFaults            0                       # Number of TLB faults due to permissions restrictions (Count)
system.switch_cpus_1.mmu.itb.readAccesses            0                       # DTB read accesses (Count)
system.switch_cpus_1.mmu.itb.writeAccesses            0                       # DTB write accesses (Count)
system.switch_cpus_1.mmu.itb.instAccesses            0                       # ITB inst accesses (Count)
system.switch_cpus_1.mmu.itb.hits                   0                       # Total TLB (inst and data) hits (Count)
system.switch_cpus_1.mmu.itb.misses                 0                       # Total TLB (inst and data) misses (Count)
system.switch_cpus_1.mmu.itb.accesses               0                       # Total TLB (inst and data) accesses (Count)
system.switch_cpus_1.mmu.itb_walker.walks            0                       # Table walker walks requested (Count)
system.switch_cpus_1.mmu.itb_walker.requestOrigin_Requested::Data            0                       # Table walker requests started/completed, data/inst (Count)
system.switch_cpus_1.mmu.itb_walker.requestOrigin_Requested::Inst            0                       # Table walker requests started/completed, data/inst (Count)
system.switch_cpus_1.mmu.itb_walker.requestOrigin_Requested::total            0                       # Table walker requests started/completed, data/inst (Count)
system.switch_cpus_1.mmu.itb_walker.requestOrigin_Completed::Data            0                       # Table walker requests started/completed, data/inst (Count)
system.switch_cpus_1.mmu.itb_walker.requestOrigin_Completed::Inst            0                       # Table walker requests started/completed, data/inst (Count)
system.switch_cpus_1.mmu.itb_walker.requestOrigin_Completed::total            0                       # Table walker requests started/completed, data/inst (Count)
system.switch_cpus_1.mmu.itb_walker.requestOrigin::total            0                       # Table walker requests started/completed, data/inst (Count)
system.switch_cpus_1.mmu.itb_walker.power_state.pwrStateResidencyTicks::UNDEFINED 891763994500                       # Cumulative time (in ticks) in various power states (Tick)
system.switch_cpus_1.mmu.stage2_dtb.instHits            0                       # ITB inst hits (Count)
system.switch_cpus_1.mmu.stage2_dtb.instMisses            0                       # ITB inst misses (Count)
system.switch_cpus_1.mmu.stage2_dtb.readHits            0                       # DTB read hits (Count)
system.switch_cpus_1.mmu.stage2_dtb.readMisses            0                       # DTB read misses (Count)
system.switch_cpus_1.mmu.stage2_dtb.writeHits            0                       # DTB write hits (Count)
system.switch_cpus_1.mmu.stage2_dtb.writeMisses            0                       # DTB write misses (Count)
system.switch_cpus_1.mmu.stage2_dtb.inserts            0                       # Number of times an entry is inserted into the TLB (Count)
system.switch_cpus_1.mmu.stage2_dtb.flushTlb            0                       # Number of times complete TLB was flushed (Count)
system.switch_cpus_1.mmu.stage2_dtb.flushTlbMva            0                       # Number of times TLB was flushed by MVA (Count)
system.switch_cpus_1.mmu.stage2_dtb.flushTlbMvaAsid            0                       # Number of times TLB was flushed by MVA & ASID (Count)
system.switch_cpus_1.mmu.stage2_dtb.flushTlbAsid            0                       # Number of times TLB was flushed by ASID (Count)
system.switch_cpus_1.mmu.stage2_dtb.flushedEntries            0                       # Number of entries that have been flushed from TLB (Count)
system.switch_cpus_1.mmu.stage2_dtb.alignFaults            0                       # Number of TLB faults due to alignment restrictions (Count)
system.switch_cpus_1.mmu.stage2_dtb.prefetchFaults            0                       # Number of TLB faults due to prefetch (Count)
system.switch_cpus_1.mmu.stage2_dtb.domainFaults            0                       # Number of TLB faults due to domain restrictions (Count)
system.switch_cpus_1.mmu.stage2_dtb.permsFaults            0                       # Number of TLB faults due to permissions restrictions (Count)
system.switch_cpus_1.mmu.stage2_dtb.readAccesses            0                       # DTB read accesses (Count)
system.switch_cpus_1.mmu.stage2_dtb.writeAccesses            0                       # DTB write accesses (Count)
system.switch_cpus_1.mmu.stage2_dtb.instAccesses            0                       # ITB inst accesses (Count)
system.switch_cpus_1.mmu.stage2_dtb.hits            0                       # Total TLB (inst and data) hits (Count)
system.switch_cpus_1.mmu.stage2_dtb.misses            0                       # Total TLB (inst and data) misses (Count)
system.switch_cpus_1.mmu.stage2_dtb.accesses            0                       # Total TLB (inst and data) accesses (Count)
system.switch_cpus_1.mmu.stage2_dtb_walker.walks            0                       # Table walker walks requested (Count)
system.switch_cpus_1.mmu.stage2_dtb_walker.requestOrigin_Requested::Data            0                       # Table walker requests started/completed, data/inst (Count)
system.switch_cpus_1.mmu.stage2_dtb_walker.requestOrigin_Requested::Inst            0                       # Table walker requests started/completed, data/inst (Count)
system.switch_cpus_1.mmu.stage2_dtb_walker.requestOrigin_Requested::total            0                       # Table walker requests started/completed, data/inst (Count)
system.switch_cpus_1.mmu.stage2_dtb_walker.requestOrigin_Completed::Data            0                       # Table walker requests started/completed, data/inst (Count)
system.switch_cpus_1.mmu.stage2_dtb_walker.requestOrigin_Completed::Inst            0                       # Table walker requests started/completed, data/inst (Count)
system.switch_cpus_1.mmu.stage2_dtb_walker.requestOrigin_Completed::total            0                       # Table walker requests started/completed, data/inst (Count)
system.switch_cpus_1.mmu.stage2_dtb_walker.requestOrigin::total            0                       # Table walker requests started/completed, data/inst (Count)
system.switch_cpus_1.mmu.stage2_dtb_walker.power_state.pwrStateResidencyTicks::UNDEFINED 891763994500                       # Cumulative time (in ticks) in various power states (Tick)
system.switch_cpus_1.mmu.stage2_itb.instHits            0                       # ITB inst hits (Count)
system.switch_cpus_1.mmu.stage2_itb.instMisses            0                       # ITB inst misses (Count)
system.switch_cpus_1.mmu.stage2_itb.readHits            0                       # DTB read hits (Count)
system.switch_cpus_1.mmu.stage2_itb.readMisses            0                       # DTB read misses (Count)
system.switch_cpus_1.mmu.stage2_itb.writeHits            0                       # DTB write hits (Count)
system.switch_cpus_1.mmu.stage2_itb.writeMisses            0                       # DTB write misses (Count)
system.switch_cpus_1.mmu.stage2_itb.inserts            0                       # Number of times an entry is inserted into the TLB (Count)
system.switch_cpus_1.mmu.stage2_itb.flushTlb            0                       # Number of times complete TLB was flushed (Count)
system.switch_cpus_1.mmu.stage2_itb.flushTlbMva            0                       # Number of times TLB was flushed by MVA (Count)
system.switch_cpus_1.mmu.stage2_itb.flushTlbMvaAsid            0                       # Number of times TLB was flushed by MVA & ASID (Count)
system.switch_cpus_1.mmu.stage2_itb.flushTlbAsid            0                       # Number of times TLB was flushed by ASID (Count)
system.switch_cpus_1.mmu.stage2_itb.flushedEntries            0                       # Number of entries that have been flushed from TLB (Count)
system.switch_cpus_1.mmu.stage2_itb.alignFaults            0                       # Number of TLB faults due to alignment restrictions (Count)
system.switch_cpus_1.mmu.stage2_itb.prefetchFaults            0                       # Number of TLB faults due to prefetch (Count)
system.switch_cpus_1.mmu.stage2_itb.domainFaults            0                       # Number of TLB faults due to domain restrictions (Count)
system.switch_cpus_1.mmu.stage2_itb.permsFaults            0                       # Number of TLB faults due to permissions restrictions (Count)
system.switch_cpus_1.mmu.stage2_itb.readAccesses            0                       # DTB read accesses (Count)
system.switch_cpus_1.mmu.stage2_itb.writeAccesses            0                       # DTB write accesses (Count)
system.switch_cpus_1.mmu.stage2_itb.instAccesses            0                       # ITB inst accesses (Count)
system.switch_cpus_1.mmu.stage2_itb.hits            0                       # Total TLB (inst and data) hits (Count)
system.switch_cpus_1.mmu.stage2_itb.misses            0                       # Total TLB (inst and data) misses (Count)
system.switch_cpus_1.mmu.stage2_itb.accesses            0                       # Total TLB (inst and data) accesses (Count)
system.switch_cpus_1.mmu.stage2_itb_walker.walks            0                       # Table walker walks requested (Count)
system.switch_cpus_1.mmu.stage2_itb_walker.requestOrigin_Requested::Data            0                       # Table walker requests started/completed, data/inst (Count)
system.switch_cpus_1.mmu.stage2_itb_walker.requestOrigin_Requested::Inst            0                       # Table walker requests started/completed, data/inst (Count)
system.switch_cpus_1.mmu.stage2_itb_walker.requestOrigin_Requested::total            0                       # Table walker requests started/completed, data/inst (Count)
system.switch_cpus_1.mmu.stage2_itb_walker.requestOrigin_Completed::Data            0                       # Table walker requests started/completed, data/inst (Count)
system.switch_cpus_1.mmu.stage2_itb_walker.requestOrigin_Completed::Inst            0                       # Table walker requests started/completed, data/inst (Count)
system.switch_cpus_1.mmu.stage2_itb_walker.requestOrigin_Completed::total            0                       # Table walker requests started/completed, data/inst (Count)
system.switch_cpus_1.mmu.stage2_itb_walker.requestOrigin::total            0                       # Table walker requests started/completed, data/inst (Count)
system.switch_cpus_1.mmu.stage2_itb_walker.power_state.pwrStateResidencyTicks::UNDEFINED 891763994500                       # Cumulative time (in ticks) in various power states (Tick)
system.switch_cpus_1.power_state.pwrStateResidencyTicks::OFF 891763994500                       # Cumulative time (in ticks) in various power states (Tick)
system.switch_cpus_1.rename.squashCycles       114149                       # Number of cycles rename is squashing (Cycle)
system.switch_cpus_1.rename.idleCycles       17527292                       # Number of cycles rename is idle (Cycle)
system.switch_cpus_1.rename.blockCycles     184351870                       # Number of cycles rename is blocking (Cycle)
system.switch_cpus_1.rename.serializeStallCycles            0                       # count of cycles rename stalled for serializing inst (Cycle)
system.switch_cpus_1.rename.runCycles        23622496                       # Number of cycles rename is running (Cycle)
system.switch_cpus_1.rename.unblockCycles    178665488                       # Number of cycles rename is unblocking (Cycle)
system.switch_cpus_1.rename.renamedInsts    251218677                       # Number of instructions processed by rename (Count)
system.switch_cpus_1.rename.ROBFullEvents        10946                       # Number of times rename has blocked due to ROB full (Count)
system.switch_cpus_1.rename.IQFullEvents     64300167                       # Number of times rename has blocked due to IQ full (Count)
system.switch_cpus_1.rename.LQFullEvents     11146066                       # Number of times rename has blocked due to LQ full (Count)
system.switch_cpus_1.rename.SQFullEvents    107386044                       # Number of times rename has blocked due to SQ full (Count)
system.switch_cpus_1.rename.renamedOperands    409666440                       # Number of destination operands rename has renamed (Count)
system.switch_cpus_1.rename.lookups         873696102                       # Number of register rename lookups that rename has made (Count)
system.switch_cpus_1.rename.intLookups      268992565                       # Number of integer rename lookups (Count)
system.switch_cpus_1.rename.vecLookups      138896000                       # Number of vector rename lookups (Count)
system.switch_cpus_1.rename.committedMaps    408245328                       # Number of HB maps that are committed (Count)
system.switch_cpus_1.rename.undoneMaps        1420918                       # Number of HB maps that are undone due to squashing (Count)
system.switch_cpus_1.rename.serializing             0                       # count of serializing insts renamed (Count)
system.switch_cpus_1.rename.tempSerializing            0                       # count of temporary serializing insts renamed (Count)
system.switch_cpus_1.rename.skidInsts       130439050                       # count of insts added to the skid buffer (Count)
system.switch_cpus_1.rob.reads              646475456                       # The number of ROB reads (Count)
system.switch_cpus_1.rob.writes             501929214                       # The number of ROB writes (Count)
system.switch_cpus_1.thread_0.numInsts      250000000                       # Number of Instructions committed (Count)
system.switch_cpus_1.thread_0.numOps        250000150                       # Number of Ops committed (Count)
system.switch_cpus_1.thread_0.numMemRefs            0                       # Number of Memory References (Count)
system.tol2bus.transDist::ReadResp            5103324                       # Transaction distribution (Count)
system.tol2bus.transDist::WritebackDirty      3659682                       # Transaction distribution (Count)
system.tol2bus.transDist::WritebackClean           24                       # Transaction distribution (Count)
system.tol2bus.transDist::CleanEvict         10187010                       # Transaction distribution (Count)
system.tol2bus.transDist::ReadExReq           1828581                       # Transaction distribution (Count)
system.tol2bus.transDist::ReadExResp          1828580                       # Transaction distribution (Count)
system.tol2bus.transDist::ReadCleanReq             24                       # Transaction distribution (Count)
system.tol2bus.transDist::ReadSharedReq       5103301                       # Transaction distribution (Count)
system.tol2bus.pktCount_system.cpu.icache.mem_side_port::system.l2.cpu_side_port           72                       # Packet count per connected requestor and responder (Count)
system.tol2bus.pktCount_system.cpu.dcache.mem_side_port::system.l2.cpu_side_port     20795642                       # Packet count per connected requestor and responder (Count)
system.tol2bus.pktCount::total               20795714                       # Packet count per connected requestor and responder (Count)
system.tol2bus.pktSize_system.cpu.icache.mem_side_port::system.l2.cpu_side_port         3072                       # Cumulative packet size per connected requestor and responder (Byte)
system.tol2bus.pktSize_system.cpu.dcache.mem_side_port::system.l2.cpu_side_port    560684288                       # Cumulative packet size per connected requestor and responder (Byte)
system.tol2bus.pktSize::total               560687360                       # Cumulative packet size per connected requestor and responder (Byte)
system.tol2bus.snoops                         6914812                       # Total snoops (Count)
system.tol2bus.snoopTraffic                 117175680                       # Total snoop traffic (Byte)
system.tol2bus.snoopFanout::samples          13846718                       # Request fanout histogram (Count)
system.tol2bus.snoopFanout::mean             0.036308                       # Request fanout histogram (Count)
system.tol2bus.snoopFanout::stdev            0.187055                       # Request fanout histogram (Count)
system.tol2bus.snoopFanout::underflows              0      0.00%      0.00% # Request fanout histogram (Count)
system.tol2bus.snoopFanout::0                13343972     96.37%     96.37% # Request fanout histogram (Count)
system.tol2bus.snoopFanout::1                  502746      3.63%    100.00% # Request fanout histogram (Count)
system.tol2bus.snoopFanout::2                       0      0.00%    100.00% # Request fanout histogram (Count)
system.tol2bus.snoopFanout::overflows               0      0.00%    100.00% # Request fanout histogram (Count)
system.tol2bus.snoopFanout::min_value               0                       # Request fanout histogram (Count)
system.tol2bus.snoopFanout::max_value               1                       # Request fanout histogram (Count)
system.tol2bus.snoopFanout::total            13846718                       # Request fanout histogram (Count)
system.tol2bus.power_state.pwrStateResidencyTicks::UNDEFINED 891763994500                       # Cumulative time (in ticks) in various power states (Tick)
system.tol2bus.reqLayer0.occupancy         8760741000                       # Layer occupancy (ticks) (Tick)
system.tol2bus.reqLayer0.utilization              0.0                       # Layer utilization (Ratio)
system.tol2bus.respLayer0.occupancy             36000                       # Layer occupancy (ticks) (Tick)
system.tol2bus.respLayer0.utilization             0.0                       # Layer utilization (Ratio)
system.tol2bus.respLayer1.occupancy       10397820000                       # Layer occupancy (ticks) (Tick)
system.tol2bus.respLayer1.utilization             0.1                       # Layer utilization (Ratio)
system.tol2bus.snoop_filter.totRequests      13863810                       # Total number of requests made to the snoop filter. (Count)
system.tol2bus.snoop_filter.hitSingleRequests      6931904                       # Number of requests hitting in the snoop filter with a single holder of the requested data. (Count)
system.tol2bus.snoop_filter.hitMultiRequests            0                       # Number of requests hitting in the snoop filter with multiple (>1) holders of the requested data. (Count)
system.tol2bus.snoop_filter.totSnoops          502746                       # Total number of snoops made to the snoop filter. (Count)
system.tol2bus.snoop_filter.hitSingleSnoops       502746                       # Number of snoops hitting in the snoop filter with a single holder of the requested data. (Count)
system.tol2bus.snoop_filter.hitMultiSnoops            0                       # Number of snoops hitting in the snoop filter with multiple (>1) holders of the requested data. (Count)
system.voltage_domain.voltage                       1                       # Voltage in Volts (Volt)
system.workload.inst.arm                            0                       # number of arm instructions executed (Count)
system.workload.inst.quiesce                        0                       # number of quiesce instructions executed (Count)

---------- End Simulation Statistics   ----------
