
---------- Begin Simulation Statistics ----------
final_tick                               1553185189000                       # Number of ticks from beginning of simulation (restored from checkpoints and never reset)
host_inst_rate                                 657865                       # Simulator instruction rate (inst/s)
host_mem_usage                                4573344                       # Number of bytes of host memory used
host_op_rate                                  1062842                       # Simulator op (including micro ops) rate (op/s)
host_seconds                                  1976.09                       # Real time elapsed on the host
host_tick_rate                              168024174                       # Simulator tick rate (ticks/s)
sim_freq                                 1000000000000                       # Frequency of simulated ticks
sim_insts                                  1300000003                       # Number of instructions simulated
sim_ops                                    2100271702                       # Number of ops (including micro ops) simulated
sim_seconds                                  0.332031                       # Number of seconds simulated
sim_ticks                                332030903500                       # Number of ticks simulated
system.cpu.committedInsts                           0                       # Number of instructions committed
system.cpu.committedOps                             0                       # Number of ops (including micro ops) committed
system.cpu.dtb.rdAccesses                           0                       # TLB accesses on read requests
system.cpu.dtb.rdMisses                             0                       # TLB misses on read requests
system.cpu.dtb.wrAccesses                           0                       # TLB accesses on write requests
system.cpu.dtb.wrMisses                             0                       # TLB misses on write requests
system.cpu.idle_fraction                            0                       # Percentage of idle cycles
system.cpu.itb.rdAccesses                           0                       # TLB accesses on read requests
system.cpu.itb.rdMisses                             0                       # TLB misses on read requests
system.cpu.itb.wrAccesses                           0                       # TLB accesses on write requests
system.cpu.itb.wrMisses                             0                       # TLB misses on write requests
system.cpu.not_idle_fraction                        1                       # Percentage of non-idle cycles
system.cpu.numCycles                                0                       # number of cpu cycles simulated
system.cpu.numWorkItemsCompleted                    0                       # number of work items this cpu completed
system.cpu.numWorkItemsStarted                      0                       # number of work items this cpu started
system.cpu.num_busy_cycles                          0                       # Number of busy cycles
system.cpu.num_conditional_control_insts            0                       # number of instructions that are conditional controls
system.cpu.num_fp_alu_accesses                      0                       # Number of float alu accesses
system.cpu.num_fp_insts                             0                       # number of float instructions
system.cpu.num_fp_register_reads                    0                       # number of times the floating registers were read
system.cpu.num_fp_register_writes                   0                       # number of times the floating registers were written
system.cpu.num_func_calls                           0                       # number of times a function call or return occured
system.cpu.num_idle_cycles                          0                       # Number of idle cycles
system.cpu.num_int_alu_accesses                     0                       # Number of integer alu accesses
system.cpu.num_int_insts                            0                       # number of integer instructions
system.cpu.num_int_register_reads                   0                       # number of times the integer registers were read
system.cpu.num_int_register_writes                  0                       # number of times the integer registers were written
system.cpu.num_load_insts                           0                       # Number of load instructions
system.cpu.num_mem_refs                             0                       # number of memory refs
system.cpu.num_store_insts                          0                       # Number of store instructions
system.cpu.num_vec_alu_accesses                     0                       # Number of vector alu accesses
system.cpu.num_vec_insts                            0                       # number of vector instructions
system.cpu.num_vec_register_reads                   0                       # number of times the vector registers were read
system.cpu.num_vec_register_writes                  0                       # number of times the vector registers were written
system.cpu.op_class::No_OpClass                     0                       # Class of executed instruction
system.cpu.op_class::IntAlu                         0                       # Class of executed instruction
system.cpu.op_class::IntMult                        0                       # Class of executed instruction
system.cpu.op_class::IntDiv                         0                       # Class of executed instruction
system.cpu.op_class::FloatAdd                       0                       # Class of executed instruction
system.cpu.op_class::FloatCmp                       0                       # Class of executed instruction
system.cpu.op_class::FloatCvt                       0                       # Class of executed instruction
system.cpu.op_class::FloatMult                      0                       # Class of executed instruction
system.cpu.op_class::FloatMultAcc                   0                       # Class of executed instruction
system.cpu.op_class::FloatDiv                       0                       # Class of executed instruction
system.cpu.op_class::FloatMisc                      0                       # Class of executed instruction
system.cpu.op_class::FloatSqrt                      0                       # Class of executed instruction
system.cpu.op_class::SimdAdd                        0                       # Class of executed instruction
system.cpu.op_class::SimdAddAcc                     0                       # Class of executed instruction
system.cpu.op_class::SimdAlu                        0                       # Class of executed instruction
system.cpu.op_class::SimdCmp                        0                       # Class of executed instruction
system.cpu.op_class::SimdCvt                        0                       # Class of executed instruction
system.cpu.op_class::SimdMisc                       0                       # Class of executed instruction
system.cpu.op_class::SimdMult                       0                       # Class of executed instruction
system.cpu.op_class::SimdMultAcc                    0                       # Class of executed instruction
system.cpu.op_class::SimdShift                      0                       # Class of executed instruction
system.cpu.op_class::SimdShiftAcc                   0                       # Class of executed instruction
system.cpu.op_class::SimdDiv                        0                       # Class of executed instruction
system.cpu.op_class::SimdSqrt                       0                       # Class of executed instruction
system.cpu.op_class::SimdFloatAdd                   0                       # Class of executed instruction
system.cpu.op_class::SimdFloatAlu                   0                       # Class of executed instruction
system.cpu.op_class::SimdFloatCmp                   0                       # Class of executed instruction
system.cpu.op_class::SimdFloatCvt                   0                       # Class of executed instruction
system.cpu.op_class::SimdFloatDiv                   0                       # Class of executed instruction
system.cpu.op_class::SimdFloatMisc                  0                       # Class of executed instruction
system.cpu.op_class::SimdFloatMult                  0                       # Class of executed instruction
system.cpu.op_class::SimdFloatMultAcc               0                       # Class of executed instruction
system.cpu.op_class::SimdFloatSqrt                  0                       # Class of executed instruction
system.cpu.op_class::SimdReduceAdd                  0                       # Class of executed instruction
system.cpu.op_class::SimdReduceAlu                  0                       # Class of executed instruction
system.cpu.op_class::SimdReduceCmp                  0                       # Class of executed instruction
system.cpu.op_class::SimdFloatReduceAdd             0                       # Class of executed instruction
system.cpu.op_class::SimdFloatReduceCmp             0                       # Class of executed instruction
system.cpu.op_class::SimdAes                        0                       # Class of executed instruction
system.cpu.op_class::SimdAesMix                     0                       # Class of executed instruction
system.cpu.op_class::SimdSha1Hash                   0                       # Class of executed instruction
system.cpu.op_class::SimdSha1Hash2                  0                       # Class of executed instruction
system.cpu.op_class::SimdSha256Hash                 0                       # Class of executed instruction
system.cpu.op_class::SimdSha256Hash2                0                       # Class of executed instruction
system.cpu.op_class::SimdShaSigma2                  0                       # Class of executed instruction
system.cpu.op_class::SimdShaSigma3                  0                       # Class of executed instruction
system.cpu.op_class::SimdPredAlu                    0                       # Class of executed instruction
system.cpu.op_class::MemRead                        0                       # Class of executed instruction
system.cpu.op_class::MemWrite                       0                       # Class of executed instruction
system.cpu.op_class::FloatMemRead                   0                       # Class of executed instruction
system.cpu.op_class::FloatMemWrite                  0                       # Class of executed instruction
system.cpu.op_class::IprAccess                      0                       # Class of executed instruction
system.cpu.op_class::InstPrefetch                   0                       # Class of executed instruction
system.cpu.op_class::total                          0                       # Class of executed instruction
system.cpu.workload.numSyscalls                     0                       # Number of system calls
system.membus.snoop_filter.hit_multi_requests            0                       # Number of requests hitting in the snoop filter with multiple (>1) holders of the requested data.
system.membus.snoop_filter.hit_multi_snoops            0                       # Number of snoops hitting in the snoop filter with multiple (>1) holders of the requested data.
system.membus.snoop_filter.hit_single_requests      6432021                       # Number of requests hitting in the snoop filter with a single holder of the requested data.
system.membus.snoop_filter.hit_single_snoops            0                       # Number of snoops hitting in the snoop filter with a single holder of the requested data.
system.membus.snoop_filter.tot_requests      12864051                       # Total number of requests made to the snoop filter.
system.membus.snoop_filter.tot_snoops               0                       # Total number of snoops made to the snoop filter.
system.switch_cpus.committedInsts                   0                       # Number of instructions committed
system.switch_cpus.committedOps                     0                       # Number of ops (including micro ops) committed
system.switch_cpus.dtb.rdAccesses                   0                       # TLB accesses on read requests
system.switch_cpus.dtb.rdMisses                     0                       # TLB misses on read requests
system.switch_cpus.dtb.wrAccesses                   0                       # TLB accesses on write requests
system.switch_cpus.dtb.wrMisses                     0                       # TLB misses on write requests
system.switch_cpus.idle_fraction                    0                       # Percentage of idle cycles
system.switch_cpus.itb.rdAccesses                   0                       # TLB accesses on read requests
system.switch_cpus.itb.rdMisses                     0                       # TLB misses on read requests
system.switch_cpus.itb.wrAccesses                   0                       # TLB accesses on write requests
system.switch_cpus.itb.wrMisses                     0                       # TLB misses on write requests
system.switch_cpus.not_idle_fraction                1                       # Percentage of non-idle cycles
system.switch_cpus.numCycles                        0                       # number of cpu cycles simulated
system.switch_cpus.numWorkItemsCompleted            0                       # number of work items this cpu completed
system.switch_cpus.numWorkItemsStarted              0                       # number of work items this cpu started
system.switch_cpus.num_busy_cycles                  0                       # Number of busy cycles
system.switch_cpus.num_conditional_control_insts            0                       # number of instructions that are conditional controls
system.switch_cpus.num_fp_alu_accesses              0                       # Number of float alu accesses
system.switch_cpus.num_fp_insts                     0                       # number of float instructions
system.switch_cpus.num_fp_register_reads            0                       # number of times the floating registers were read
system.switch_cpus.num_fp_register_writes            0                       # number of times the floating registers were written
system.switch_cpus.num_func_calls                   0                       # number of times a function call or return occured
system.switch_cpus.num_idle_cycles                  0                       # Number of idle cycles
system.switch_cpus.num_int_alu_accesses             0                       # Number of integer alu accesses
system.switch_cpus.num_int_insts                    0                       # number of integer instructions
system.switch_cpus.num_int_register_reads            0                       # number of times the integer registers were read
system.switch_cpus.num_int_register_writes            0                       # number of times the integer registers were written
system.switch_cpus.num_load_insts                   0                       # Number of load instructions
system.switch_cpus.num_mem_refs                     0                       # number of memory refs
system.switch_cpus.num_store_insts                  0                       # Number of store instructions
system.switch_cpus.num_vec_alu_accesses             0                       # Number of vector alu accesses
system.switch_cpus.num_vec_insts                    0                       # number of vector instructions
system.switch_cpus.num_vec_register_reads            0                       # number of times the vector registers were read
system.switch_cpus.num_vec_register_writes            0                       # number of times the vector registers were written
system.switch_cpus.op_class::No_OpClass             0                       # Class of executed instruction
system.switch_cpus.op_class::IntAlu                 0                       # Class of executed instruction
system.switch_cpus.op_class::IntMult                0                       # Class of executed instruction
system.switch_cpus.op_class::IntDiv                 0                       # Class of executed instruction
system.switch_cpus.op_class::FloatAdd               0                       # Class of executed instruction
system.switch_cpus.op_class::FloatCmp               0                       # Class of executed instruction
system.switch_cpus.op_class::FloatCvt               0                       # Class of executed instruction
system.switch_cpus.op_class::FloatMult              0                       # Class of executed instruction
system.switch_cpus.op_class::FloatMultAcc            0                       # Class of executed instruction
system.switch_cpus.op_class::FloatDiv               0                       # Class of executed instruction
system.switch_cpus.op_class::FloatMisc              0                       # Class of executed instruction
system.switch_cpus.op_class::FloatSqrt              0                       # Class of executed instruction
system.switch_cpus.op_class::SimdAdd                0                       # Class of executed instruction
system.switch_cpus.op_class::SimdAddAcc             0                       # Class of executed instruction
system.switch_cpus.op_class::SimdAlu                0                       # Class of executed instruction
system.switch_cpus.op_class::SimdCmp                0                       # Class of executed instruction
system.switch_cpus.op_class::SimdCvt                0                       # Class of executed instruction
system.switch_cpus.op_class::SimdMisc               0                       # Class of executed instruction
system.switch_cpus.op_class::SimdMult               0                       # Class of executed instruction
system.switch_cpus.op_class::SimdMultAcc            0                       # Class of executed instruction
system.switch_cpus.op_class::SimdShift              0                       # Class of executed instruction
system.switch_cpus.op_class::SimdShiftAcc            0                       # Class of executed instruction
system.switch_cpus.op_class::SimdDiv                0                       # Class of executed instruction
system.switch_cpus.op_class::SimdSqrt               0                       # Class of executed instruction
system.switch_cpus.op_class::SimdFloatAdd            0                       # Class of executed instruction
system.switch_cpus.op_class::SimdFloatAlu            0                       # Class of executed instruction
system.switch_cpus.op_class::SimdFloatCmp            0                       # Class of executed instruction
system.switch_cpus.op_class::SimdFloatCvt            0                       # Class of executed instruction
system.switch_cpus.op_class::SimdFloatDiv            0                       # Class of executed instruction
system.switch_cpus.op_class::SimdFloatMisc            0                       # Class of executed instruction
system.switch_cpus.op_class::SimdFloatMult            0                       # Class of executed instruction
system.switch_cpus.op_class::SimdFloatMultAcc            0                       # Class of executed instruction
system.switch_cpus.op_class::SimdFloatSqrt            0                       # Class of executed instruction
system.switch_cpus.op_class::SimdReduceAdd            0                       # Class of executed instruction
system.switch_cpus.op_class::SimdReduceAlu            0                       # Class of executed instruction
system.switch_cpus.op_class::SimdReduceCmp            0                       # Class of executed instruction
system.switch_cpus.op_class::SimdFloatReduceAdd            0                       # Class of executed instruction
system.switch_cpus.op_class::SimdFloatReduceCmp            0                       # Class of executed instruction
system.switch_cpus.op_class::SimdAes                0                       # Class of executed instruction
system.switch_cpus.op_class::SimdAesMix             0                       # Class of executed instruction
system.switch_cpus.op_class::SimdSha1Hash            0                       # Class of executed instruction
system.switch_cpus.op_class::SimdSha1Hash2            0                       # Class of executed instruction
system.switch_cpus.op_class::SimdSha256Hash            0                       # Class of executed instruction
system.switch_cpus.op_class::SimdSha256Hash2            0                       # Class of executed instruction
system.switch_cpus.op_class::SimdShaSigma2            0                       # Class of executed instruction
system.switch_cpus.op_class::SimdShaSigma3            0                       # Class of executed instruction
system.switch_cpus.op_class::SimdPredAlu            0                       # Class of executed instruction
system.switch_cpus.op_class::MemRead                0                       # Class of executed instruction
system.switch_cpus.op_class::MemWrite               0                       # Class of executed instruction
system.switch_cpus.op_class::FloatMemRead            0                       # Class of executed instruction
system.switch_cpus.op_class::FloatMemWrite            0                       # Class of executed instruction
system.switch_cpus.op_class::IprAccess              0                       # Class of executed instruction
system.switch_cpus.op_class::InstPrefetch            0                       # Class of executed instruction
system.switch_cpus.op_class::total                  0                       # Class of executed instruction
system.switch_cpus_1.branchPred.BTBCorrect            0                       # Number of correct BTB predictions (this stat may not work properly.
system.switch_cpus_1.branchPred.BTBHitPct          nan                       # BTB Hit Percentage
system.switch_cpus_1.branchPred.BTBHits             0                       # Number of BTB hits
system.switch_cpus_1.branchPred.BTBLookups            0                       # Number of BTB lookups
system.switch_cpus_1.branchPred.RASInCorrect            0                       # Number of incorrect RAS predictions.
system.switch_cpus_1.branchPred.condIncorrect       118626                       # Number of conditional branches incorrect
system.switch_cpus_1.branchPred.condPredicted     49592308                       # Number of conditional branches predicted
system.switch_cpus_1.branchPred.indirectHits     49247259                       # Number of indirect target hits.
system.switch_cpus_1.branchPred.indirectLookups     49247823                       # Number of indirect predictor lookups.
system.switch_cpus_1.branchPred.indirectMisses          564                       # Number of indirect misses.
system.switch_cpus_1.branchPred.lookups      49592533                       # Number of BP lookups
system.switch_cpus_1.branchPred.usedRAS           166                       # Number of times the RAS was used to get a target.
system.switch_cpus_1.branchPredindirectMispredicted          229                       # Number of mispredicted indirect branches.
system.switch_cpus_1.cc_regfile_reads       280824665                       # number of cc regfile reads
system.switch_cpus_1.cc_regfile_writes      197164852                       # number of cc regfile writes
system.switch_cpus_1.commit.amos                    0                       # Number of atomic instructions committed
system.switch_cpus_1.commit.branchMispredicts       118626                       # The number of times a branch was mispredicted
system.switch_cpus_1.commit.branches         49267502                       # Number of branches committed
system.switch_cpus_1.commit.bw_lim_events     44838965                       # number cycles where commit BW limit reached
system.switch_cpus_1.commit.commitSquashedInsts      1562892                       # The number of squashed insts skipped by commit
system.switch_cpus_1.commit.committedInsts    250000001                       # Number of instructions committed
system.switch_cpus_1.commit.committedOps    449330016                       # Number of ops (including micro ops) committed
system.switch_cpus_1.commit.committed_per_cycle::samples    663792835                       # Number of insts commited each cycle
system.switch_cpus_1.commit.committed_per_cycle::mean     0.676913                       # Number of insts commited each cycle
system.switch_cpus_1.commit.committed_per_cycle::stdev     2.104042                       # Number of insts commited each cycle
system.switch_cpus_1.commit.committed_per_cycle::underflows            0      0.00%      0.00% # Number of insts commited each cycle
system.switch_cpus_1.commit.committed_per_cycle::0    588713640     88.69%     88.69% # Number of insts commited each cycle
system.switch_cpus_1.commit.committed_per_cycle::1      9809509      1.48%     90.17% # Number of insts commited each cycle
system.switch_cpus_1.commit.committed_per_cycle::2      3489687      0.53%     90.69% # Number of insts commited each cycle
system.switch_cpus_1.commit.committed_per_cycle::3      5776526      0.87%     91.56% # Number of insts commited each cycle
system.switch_cpus_1.commit.committed_per_cycle::4      5175746      0.78%     92.34% # Number of insts commited each cycle
system.switch_cpus_1.commit.committed_per_cycle::5       334819      0.05%     92.39% # Number of insts commited each cycle
system.switch_cpus_1.commit.committed_per_cycle::6      5454845      0.82%     93.22% # Number of insts commited each cycle
system.switch_cpus_1.commit.committed_per_cycle::7       199098      0.03%     93.25% # Number of insts commited each cycle
system.switch_cpus_1.commit.committed_per_cycle::8     44838965      6.75%    100.00% # Number of insts commited each cycle
system.switch_cpus_1.commit.committed_per_cycle::overflows            0      0.00%    100.00% # Number of insts commited each cycle
system.switch_cpus_1.commit.committed_per_cycle::min_value            0                       # Number of insts commited each cycle
system.switch_cpus_1.commit.committed_per_cycle::max_value            8                       # Number of insts commited each cycle
system.switch_cpus_1.commit.committed_per_cycle::total    663792835                       # Number of insts commited each cycle
system.switch_cpus_1.commit.fp_insts        160482820                       # Number of committed floating point instructions.
system.switch_cpus_1.commit.function_calls           16                       # Number of function calls committed.
system.switch_cpus_1.commit.int_insts       358326378                       # Number of committed integer instructions.
system.switch_cpus_1.commit.loads            47766201                       # Number of loads committed
system.switch_cpus_1.commit.membars                 0                       # Number of memory barriers committed
system.switch_cpus_1.commit.op_class_0::No_OpClass        17190      0.00%      0.00% # Class of committed instruction
system.switch_cpus_1.commit.op_class_0::IntAlu    296927542     66.08%     66.09% # Class of committed instruction
system.switch_cpus_1.commit.op_class_0::IntMult           56      0.00%     66.09% # Class of committed instruction
system.switch_cpus_1.commit.op_class_0::IntDiv          112      0.00%     66.09% # Class of committed instruction
system.switch_cpus_1.commit.op_class_0::FloatAdd     38694499      8.61%     74.70% # Class of committed instruction
system.switch_cpus_1.commit.op_class_0::FloatCmp            0      0.00%     74.70% # Class of committed instruction
system.switch_cpus_1.commit.op_class_0::FloatCvt            0      0.00%     74.70% # Class of committed instruction
system.switch_cpus_1.commit.op_class_0::FloatMult            0      0.00%     74.70% # Class of committed instruction
system.switch_cpus_1.commit.op_class_0::FloatMultAcc            0      0.00%     74.70% # Class of committed instruction
system.switch_cpus_1.commit.op_class_0::FloatDiv            0      0.00%     74.70% # Class of committed instruction
system.switch_cpus_1.commit.op_class_0::FloatMisc            0      0.00%     74.70% # Class of committed instruction
system.switch_cpus_1.commit.op_class_0::FloatSqrt            0      0.00%     74.70% # Class of committed instruction
system.switch_cpus_1.commit.op_class_0::SimdAdd            0      0.00%     74.70% # Class of committed instruction
system.switch_cpus_1.commit.op_class_0::SimdAddAcc            0      0.00%     74.70% # Class of committed instruction
system.switch_cpus_1.commit.op_class_0::SimdAlu            4      0.00%     74.70% # Class of committed instruction
system.switch_cpus_1.commit.op_class_0::SimdCmp            0      0.00%     74.70% # Class of committed instruction
system.switch_cpus_1.commit.op_class_0::SimdCvt            0      0.00%     74.70% # Class of committed instruction
system.switch_cpus_1.commit.op_class_0::SimdMisc        34848      0.01%     74.71% # Class of committed instruction
system.switch_cpus_1.commit.op_class_0::SimdMult            0      0.00%     74.71% # Class of committed instruction
system.switch_cpus_1.commit.op_class_0::SimdMultAcc            0      0.00%     74.71% # Class of committed instruction
system.switch_cpus_1.commit.op_class_0::SimdShift            0      0.00%     74.71% # Class of committed instruction
system.switch_cpus_1.commit.op_class_0::SimdShiftAcc            0      0.00%     74.71% # Class of committed instruction
system.switch_cpus_1.commit.op_class_0::SimdDiv            0      0.00%     74.71% # Class of committed instruction
system.switch_cpus_1.commit.op_class_0::SimdSqrt            0      0.00%     74.71% # Class of committed instruction
system.switch_cpus_1.commit.op_class_0::SimdFloatAdd     10619286      2.36%     77.07% # Class of committed instruction
system.switch_cpus_1.commit.op_class_0::SimdFloatAlu            0      0.00%     77.07% # Class of committed instruction
system.switch_cpus_1.commit.op_class_0::SimdFloatCmp            0      0.00%     77.07% # Class of committed instruction
system.switch_cpus_1.commit.op_class_0::SimdFloatCvt     17124346      3.81%     80.88% # Class of committed instruction
system.switch_cpus_1.commit.op_class_0::SimdFloatDiv      2321910      0.52%     81.40% # Class of committed instruction
system.switch_cpus_1.commit.op_class_0::SimdFloatMisc            0      0.00%     81.40% # Class of committed instruction
system.switch_cpus_1.commit.op_class_0::SimdFloatMult     13765806      3.06%     84.46% # Class of committed instruction
system.switch_cpus_1.commit.op_class_0::SimdFloatMultAcc            0      0.00%     84.46% # Class of committed instruction
system.switch_cpus_1.commit.op_class_0::SimdFloatSqrt       224755      0.05%     84.51% # Class of committed instruction
system.switch_cpus_1.commit.op_class_0::SimdReduceAdd            0      0.00%     84.51% # Class of committed instruction
system.switch_cpus_1.commit.op_class_0::SimdReduceAlu            0      0.00%     84.51% # Class of committed instruction
system.switch_cpus_1.commit.op_class_0::SimdReduceCmp            0      0.00%     84.51% # Class of committed instruction
system.switch_cpus_1.commit.op_class_0::SimdFloatReduceAdd            0      0.00%     84.51% # Class of committed instruction
system.switch_cpus_1.commit.op_class_0::SimdFloatReduceCmp            0      0.00%     84.51% # Class of committed instruction
system.switch_cpus_1.commit.op_class_0::SimdAes            0      0.00%     84.51% # Class of committed instruction
system.switch_cpus_1.commit.op_class_0::SimdAesMix            0      0.00%     84.51% # Class of committed instruction
system.switch_cpus_1.commit.op_class_0::SimdSha1Hash            0      0.00%     84.51% # Class of committed instruction
system.switch_cpus_1.commit.op_class_0::SimdSha1Hash2            0      0.00%     84.51% # Class of committed instruction
system.switch_cpus_1.commit.op_class_0::SimdSha256Hash            0      0.00%     84.51% # Class of committed instruction
system.switch_cpus_1.commit.op_class_0::SimdSha256Hash2            0      0.00%     84.51% # Class of committed instruction
system.switch_cpus_1.commit.op_class_0::SimdShaSigma2            0      0.00%     84.51% # Class of committed instruction
system.switch_cpus_1.commit.op_class_0::SimdShaSigma3            0      0.00%     84.51% # Class of committed instruction
system.switch_cpus_1.commit.op_class_0::SimdPredAlu            0      0.00%     84.51% # Class of committed instruction
system.switch_cpus_1.commit.op_class_0::MemRead         3747      0.00%     84.51% # Class of committed instruction
system.switch_cpus_1.commit.op_class_0::MemWrite          195      0.00%     84.51% # Class of committed instruction
system.switch_cpus_1.commit.op_class_0::FloatMemRead     47762454     10.63%     95.14% # Class of committed instruction
system.switch_cpus_1.commit.op_class_0::FloatMemWrite     21833266      4.86%    100.00% # Class of committed instruction
system.switch_cpus_1.commit.op_class_0::IprAccess            0      0.00%    100.00% # Class of committed instruction
system.switch_cpus_1.commit.op_class_0::InstPrefetch            0      0.00%    100.00% # Class of committed instruction
system.switch_cpus_1.commit.op_class_0::total    449330016                       # Class of committed instruction
system.switch_cpus_1.commit.refs             69599662                       # Number of memory references committed
system.switch_cpus_1.commit.swp_count               0                       # Number of s/w prefetches committed
system.switch_cpus_1.commit.vec_insts               0                       # Number of committed Vector instructions.
system.switch_cpus_1.committedInsts         250000001                       # Number of Instructions Simulated
system.switch_cpus_1.committedOps           449330016                       # Number of Ops (including micro ops) Simulated
system.switch_cpus_1.cpi                     2.656247                       # CPI: Cycles Per Instruction
system.switch_cpus_1.cpi_total               2.656247                       # CPI: Total CPI of All Threads
system.switch_cpus_1.decode.BlockedCycles    572088210                       # Number of cycles decode is blocked
system.switch_cpus_1.decode.DecodedInsts    452166256                       # Number of instructions handled by decode
system.switch_cpus_1.decode.IdleCycles       27233128                       # Number of cycles decode is idle
system.switch_cpus_1.decode.RunCycles        54590274                       # Number of cycles decode is running
system.switch_cpus_1.decode.SquashCycles       119286                       # Number of cycles decode is squashing
system.switch_cpus_1.decode.UnblockCycles     10027436                       # Number of cycles decode is unblocking
system.switch_cpus_1.dtb.rdAccesses          47944661                       # TLB accesses on read requests
system.switch_cpus_1.dtb.rdMisses               73967                       # TLB misses on read requests
system.switch_cpus_1.dtb.wrAccesses          21834080                       # TLB accesses on write requests
system.switch_cpus_1.dtb.wrMisses               29369                       # TLB misses on write requests
system.switch_cpus_1.fetch.Branches          49592533                       # Number of branches that fetch encountered
system.switch_cpus_1.fetch.CacheLines        47749021                       # Number of cache lines fetched
system.switch_cpus_1.fetch.Cycles           616141190                       # Number of cycles fetch has run and was not squashing or blocked
system.switch_cpus_1.fetch.IcacheSquashes        51976                       # Number of outstanding Icache misses that were squashed
system.switch_cpus_1.fetch.Insts            252208842                       # Number of instructions fetch has processed
system.switch_cpus_1.fetch.SquashCycles        238572                       # Number of cycles fetch has spent squashing
system.switch_cpus_1.fetch.branchRate        0.074681                       # Number of branch fetches per cycle
system.switch_cpus_1.fetch.icacheStallCycles     47797870                       # Number of cycles fetch is stalled on an Icache miss
system.switch_cpus_1.fetch.predictedBranches     49247425                       # Number of branches that fetch has predicted taken
system.switch_cpus_1.fetch.rate              0.379797                       # Number of inst fetches per cycle
system.switch_cpus_1.fetch.rateDist::samples    664058346                       # Number of instructions fetched each cycle (Total)
system.switch_cpus_1.fetch.rateDist::mean     0.682239                       # Number of instructions fetched each cycle (Total)
system.switch_cpus_1.fetch.rateDist::stdev     2.014263                       # Number of instructions fetched each cycle (Total)
system.switch_cpus_1.fetch.rateDist::underflows            0      0.00%      0.00% # Number of instructions fetched each cycle (Total)
system.switch_cpus_1.fetch.rateDist::0      587037906     88.40%     88.40% # Number of instructions fetched each cycle (Total)
system.switch_cpus_1.fetch.rateDist::1         952204      0.14%     88.54% # Number of instructions fetched each cycle (Total)
system.switch_cpus_1.fetch.rateDist::2        3563772      0.54%     89.08% # Number of instructions fetched each cycle (Total)
system.switch_cpus_1.fetch.rateDist::3       14593257      2.20%     91.28% # Number of instructions fetched each cycle (Total)
system.switch_cpus_1.fetch.rateDist::4        2946510      0.44%     91.72% # Number of instructions fetched each cycle (Total)
system.switch_cpus_1.fetch.rateDist::5        2120718      0.32%     92.04% # Number of instructions fetched each cycle (Total)
system.switch_cpus_1.fetch.rateDist::6       16965992      2.55%     94.60% # Number of instructions fetched each cycle (Total)
system.switch_cpus_1.fetch.rateDist::7       10022326      1.51%     96.11% # Number of instructions fetched each cycle (Total)
system.switch_cpus_1.fetch.rateDist::8       25855661      3.89%    100.00% # Number of instructions fetched each cycle (Total)
system.switch_cpus_1.fetch.rateDist::overflows            0      0.00%    100.00% # Number of instructions fetched each cycle (Total)
system.switch_cpus_1.fetch.rateDist::min_value            0                       # Number of instructions fetched each cycle (Total)
system.switch_cpus_1.fetch.rateDist::max_value            8                       # Number of instructions fetched each cycle (Total)
system.switch_cpus_1.fetch.rateDist::total    664058346                       # Number of instructions fetched each cycle (Total)
system.switch_cpus_1.fp_regfile_reads       152948791                       # number of floating regfile reads
system.switch_cpus_1.fp_regfile_writes      121736541                       # number of floating regfile writes
system.switch_cpus_1.idleCycles                  3461                       # Total number of cycles that the CPU has spent unscheduled due to idling
system.switch_cpus_1.iew.branchMispredicts       118801                       # Number of branch mispredicts detected at execute
system.switch_cpus_1.iew.exec_branches       49290610                       # Number of branches executed
system.switch_cpus_1.iew.exec_nop                   0                       # number of nop insts executed
system.switch_cpus_1.iew.exec_rate           0.678398                       # Inst execution rate
system.switch_cpus_1.iew.exec_refs           70238909                       # number of memory reference insts executed
system.switch_cpus_1.iew.exec_stores         21834080                       # Number of stores executed
system.switch_cpus_1.iew.exec_swp                   0                       # number of swp insts executed
system.switch_cpus_1.iew.iewBlockCycles        686654                       # Number of cycles IEW is blocking
system.switch_cpus_1.iew.iewDispLoadInsts     47987083                       # Number of dispatched load instructions
system.switch_cpus_1.iew.iewDispNonSpecInsts            0                       # Number of dispatched non-speculative instructions
system.switch_cpus_1.iew.iewDispSquashedInsts        39632                       # Number of squashed instructions skipped by dispatch
system.switch_cpus_1.iew.iewDispStoreInsts     21968826                       # Number of dispatched store instructions
system.switch_cpus_1.iew.iewDispatchedInsts    450893017                       # Number of instructions dispatched to IQ
system.switch_cpus_1.iew.iewExecLoadInsts     48404829                       # Number of load instructions executed
system.switch_cpus_1.iew.iewExecSquashedInsts       312220                       # Number of squashed instructions skipped in execute
system.switch_cpus_1.iew.iewExecutedInsts    450498349                       # Number of executed instructions
system.switch_cpus_1.iew.iewIQFullEvents        14971                       # Number of times the IQ has become full, causing a stall
system.switch_cpus_1.iew.iewIdleCycles              0                       # Number of cycles IEW is idle
system.switch_cpus_1.iew.iewLSQFullEvents      2917330                       # Number of times the LSQ has become full, causing a stall
system.switch_cpus_1.iew.iewSquashCycles       119286                       # Number of cycles IEW is squashing
system.switch_cpus_1.iew.iewUnblockCycles      2971377                       # Number of cycles IEW is unblocking
system.switch_cpus_1.iew.lsq.thread0.blockedLoads            0                       # Number of blocked loads due to partial load-store forwarding
system.switch_cpus_1.iew.lsq.thread0.cacheBlocked        71352                       # Number of times an access to memory failed due to the cache being blocked
system.switch_cpus_1.iew.lsq.thread0.forwLoads      1381863                       # Number of loads that had data forwarded from stores
system.switch_cpus_1.iew.lsq.thread0.ignoredResponses          298                       # Number of memory responses ignored because the instruction is squashed
system.switch_cpus_1.iew.lsq.thread0.invAddrLoads            0                       # Number of loads ignored due to an invalid address
system.switch_cpus_1.iew.lsq.thread0.invAddrSwpfs            0                       # Number of software prefetches ignored due to an invalid address
system.switch_cpus_1.iew.lsq.thread0.memOrderViolation          688                       # Number of memory ordering violations
system.switch_cpus_1.iew.lsq.thread0.rescheduledLoads            0                       # Number of loads that were rescheduled
system.switch_cpus_1.iew.lsq.thread0.squashedLoads       220870                       # Number of loads squashed
system.switch_cpus_1.iew.lsq.thread0.squashedStores       135365                       # Number of stores squashed
system.switch_cpus_1.iew.memOrderViolationEvents          688                       # Number of memory order violations
system.switch_cpus_1.iew.predictedNotTakenIncorrect          484                       # Number of branches that were predicted not taken incorrectly
system.switch_cpus_1.iew.predictedTakenIncorrect       118317                       # Number of branches that were predicted taken incorrectly
system.switch_cpus_1.iew.wb_consumers       480848343                       # num instructions consuming a value
system.switch_cpus_1.iew.wb_count           449880815                       # cumulative count of insts written-back
system.switch_cpus_1.iew.wb_fanout           0.668493                       # average fanout of values written-back
system.switch_cpus_1.iew.wb_producers       321443737                       # num instructions producing a value
system.switch_cpus_1.iew.wb_rate             0.677468                       # insts written-back per cycle
system.switch_cpus_1.iew.wb_sent            449887577                       # cumulative count of insts sent to commit
system.switch_cpus_1.int_regfile_reads      433890241                       # number of integer regfile reads
system.switch_cpus_1.int_regfile_writes     239819567                       # number of integer regfile writes
system.switch_cpus_1.ipc                     0.376471                       # IPC: Instructions Per Cycle
system.switch_cpus_1.ipc_total               0.376471                       # IPC: Total IPC of All Threads
system.switch_cpus_1.iq.FU_type_0::No_OpClass        17351      0.00%      0.00% # Type of FU issued
system.switch_cpus_1.iq.FU_type_0::IntAlu    297553254     66.00%     66.01% # Type of FU issued
system.switch_cpus_1.iq.FU_type_0::IntMult           70      0.00%     66.01% # Type of FU issued
system.switch_cpus_1.iq.FU_type_0::IntDiv          113      0.00%     66.01% # Type of FU issued
system.switch_cpus_1.iq.FU_type_0::FloatAdd     38875891      8.62%     74.63% # Type of FU issued
system.switch_cpus_1.iq.FU_type_0::FloatCmp            0      0.00%     74.63% # Type of FU issued
system.switch_cpus_1.iq.FU_type_0::FloatCvt            0      0.00%     74.63% # Type of FU issued
system.switch_cpus_1.iq.FU_type_0::FloatMult            0      0.00%     74.63% # Type of FU issued
system.switch_cpus_1.iq.FU_type_0::FloatMultAcc            0      0.00%     74.63% # Type of FU issued
system.switch_cpus_1.iq.FU_type_0::FloatDiv            0      0.00%     74.63% # Type of FU issued
system.switch_cpus_1.iq.FU_type_0::FloatMisc            0      0.00%     74.63% # Type of FU issued
system.switch_cpus_1.iq.FU_type_0::FloatSqrt            0      0.00%     74.63% # Type of FU issued
system.switch_cpus_1.iq.FU_type_0::SimdAdd            0      0.00%     74.63% # Type of FU issued
system.switch_cpus_1.iq.FU_type_0::SimdAddAcc            0      0.00%     74.63% # Type of FU issued
system.switch_cpus_1.iq.FU_type_0::SimdAlu            6      0.00%     74.63% # Type of FU issued
system.switch_cpus_1.iq.FU_type_0::SimdCmp            0      0.00%     74.63% # Type of FU issued
system.switch_cpus_1.iq.FU_type_0::SimdCvt            0      0.00%     74.63% # Type of FU issued
system.switch_cpus_1.iq.FU_type_0::SimdMisc        35114      0.01%     74.64% # Type of FU issued
system.switch_cpus_1.iq.FU_type_0::SimdMult            0      0.00%     74.64% # Type of FU issued
system.switch_cpus_1.iq.FU_type_0::SimdMultAcc            0      0.00%     74.64% # Type of FU issued
system.switch_cpus_1.iq.FU_type_0::SimdShift            0      0.00%     74.64% # Type of FU issued
system.switch_cpus_1.iq.FU_type_0::SimdShiftAcc            0      0.00%     74.64% # Type of FU issued
system.switch_cpus_1.iq.FU_type_0::SimdDiv            0      0.00%     74.64% # Type of FU issued
system.switch_cpus_1.iq.FU_type_0::SimdSqrt            0      0.00%     74.64% # Type of FU issued
system.switch_cpus_1.iq.FU_type_0::SimdFloatAdd     10624130      2.36%     77.00% # Type of FU issued
system.switch_cpus_1.iq.FU_type_0::SimdFloatAlu            0      0.00%     77.00% # Type of FU issued
system.switch_cpus_1.iq.FU_type_0::SimdFloatCmp            0      0.00%     77.00% # Type of FU issued
system.switch_cpus_1.iq.FU_type_0::SimdFloatCvt     17124717      3.80%     80.79% # Type of FU issued
system.switch_cpus_1.iq.FU_type_0::SimdFloatDiv      2321959      0.52%     81.31% # Type of FU issued
system.switch_cpus_1.iq.FU_type_0::SimdFloatMisc            0      0.00%     81.31% # Type of FU issued
system.switch_cpus_1.iq.FU_type_0::SimdFloatMult     13766978      3.05%     84.36% # Type of FU issued
system.switch_cpus_1.iq.FU_type_0::SimdFloatMultAcc            0      0.00%     84.36% # Type of FU issued
system.switch_cpus_1.iq.FU_type_0::SimdFloatSqrt       224781      0.05%     84.41% # Type of FU issued
system.switch_cpus_1.iq.FU_type_0::SimdReduceAdd            0      0.00%     84.41% # Type of FU issued
system.switch_cpus_1.iq.FU_type_0::SimdReduceAlu            0      0.00%     84.41% # Type of FU issued
system.switch_cpus_1.iq.FU_type_0::SimdReduceCmp            0      0.00%     84.41% # Type of FU issued
system.switch_cpus_1.iq.FU_type_0::SimdFloatReduceAdd            0      0.00%     84.41% # Type of FU issued
system.switch_cpus_1.iq.FU_type_0::SimdFloatReduceCmp            0      0.00%     84.41% # Type of FU issued
system.switch_cpus_1.iq.FU_type_0::SimdAes            0      0.00%     84.41% # Type of FU issued
system.switch_cpus_1.iq.FU_type_0::SimdAesMix            0      0.00%     84.41% # Type of FU issued
system.switch_cpus_1.iq.FU_type_0::SimdSha1Hash            0      0.00%     84.41% # Type of FU issued
system.switch_cpus_1.iq.FU_type_0::SimdSha1Hash2            0      0.00%     84.41% # Type of FU issued
system.switch_cpus_1.iq.FU_type_0::SimdSha256Hash            0      0.00%     84.41% # Type of FU issued
system.switch_cpus_1.iq.FU_type_0::SimdSha256Hash2            0      0.00%     84.41% # Type of FU issued
system.switch_cpus_1.iq.FU_type_0::SimdShaSigma2            0      0.00%     84.41% # Type of FU issued
system.switch_cpus_1.iq.FU_type_0::SimdShaSigma3            0      0.00%     84.41% # Type of FU issued
system.switch_cpus_1.iq.FU_type_0::SimdPredAlu            0      0.00%     84.41% # Type of FU issued
system.switch_cpus_1.iq.FU_type_0::MemRead         7583      0.00%     84.42% # Type of FU issued
system.switch_cpus_1.iq.FU_type_0::MemWrite          209      0.00%     84.42% # Type of FU issued
system.switch_cpus_1.iq.FU_type_0::FloatMemRead     48421457     10.74%     95.16% # Type of FU issued
system.switch_cpus_1.iq.FU_type_0::FloatMemWrite     21836961      4.84%    100.00% # Type of FU issued
system.switch_cpus_1.iq.FU_type_0::IprAccess            0      0.00%    100.00% # Type of FU issued
system.switch_cpus_1.iq.FU_type_0::InstPrefetch            0      0.00%    100.00% # Type of FU issued
system.switch_cpus_1.iq.FU_type_0::total    450810574                       # Type of FU issued
system.switch_cpus_1.iq.fp_alu_accesses     164919272                       # Number of floating point alu accesses
system.switch_cpus_1.iq.fp_inst_queue_reads    326256399                       # Number of floating instruction queue reads
system.switch_cpus_1.iq.fp_inst_queue_wakeup_accesses    160653419                       # Number of floating instruction queue wakeup accesses
system.switch_cpus_1.iq.fp_inst_queue_writes    161770557                       # Number of floating instruction queue writes
system.switch_cpus_1.iq.fu_busy_cnt          10660353                       # FU busy when requested
system.switch_cpus_1.iq.fu_busy_rate         0.023647                       # FU busy rate (busy events/executed inst)
system.switch_cpus_1.iq.fu_full::No_OpClass            0      0.00%      0.00% # attempts to use FU when none available
system.switch_cpus_1.iq.fu_full::IntAlu       7076429     66.38%     66.38% # attempts to use FU when none available
system.switch_cpus_1.iq.fu_full::IntMult            0      0.00%     66.38% # attempts to use FU when none available
system.switch_cpus_1.iq.fu_full::IntDiv             0      0.00%     66.38% # attempts to use FU when none available
system.switch_cpus_1.iq.fu_full::FloatAdd            0      0.00%     66.38% # attempts to use FU when none available
system.switch_cpus_1.iq.fu_full::FloatCmp            0      0.00%     66.38% # attempts to use FU when none available
system.switch_cpus_1.iq.fu_full::FloatCvt            0      0.00%     66.38% # attempts to use FU when none available
system.switch_cpus_1.iq.fu_full::FloatMult            0      0.00%     66.38% # attempts to use FU when none available
system.switch_cpus_1.iq.fu_full::FloatMultAcc            0      0.00%     66.38% # attempts to use FU when none available
system.switch_cpus_1.iq.fu_full::FloatDiv            0      0.00%     66.38% # attempts to use FU when none available
system.switch_cpus_1.iq.fu_full::FloatMisc            0      0.00%     66.38% # attempts to use FU when none available
system.switch_cpus_1.iq.fu_full::FloatSqrt            0      0.00%     66.38% # attempts to use FU when none available
system.switch_cpus_1.iq.fu_full::SimdAdd            0      0.00%     66.38% # attempts to use FU when none available
system.switch_cpus_1.iq.fu_full::SimdAddAcc            0      0.00%     66.38% # attempts to use FU when none available
system.switch_cpus_1.iq.fu_full::SimdAlu            0      0.00%     66.38% # attempts to use FU when none available
system.switch_cpus_1.iq.fu_full::SimdCmp            0      0.00%     66.38% # attempts to use FU when none available
system.switch_cpus_1.iq.fu_full::SimdCvt            0      0.00%     66.38% # attempts to use FU when none available
system.switch_cpus_1.iq.fu_full::SimdMisc            8      0.00%     66.38% # attempts to use FU when none available
system.switch_cpus_1.iq.fu_full::SimdMult            0      0.00%     66.38% # attempts to use FU when none available
system.switch_cpus_1.iq.fu_full::SimdMultAcc            0      0.00%     66.38% # attempts to use FU when none available
system.switch_cpus_1.iq.fu_full::SimdShift            0      0.00%     66.38% # attempts to use FU when none available
system.switch_cpus_1.iq.fu_full::SimdShiftAcc            0      0.00%     66.38% # attempts to use FU when none available
system.switch_cpus_1.iq.fu_full::SimdDiv            0      0.00%     66.38% # attempts to use FU when none available
system.switch_cpus_1.iq.fu_full::SimdSqrt            0      0.00%     66.38% # attempts to use FU when none available
system.switch_cpus_1.iq.fu_full::SimdFloatAdd       394485      3.70%     70.08% # attempts to use FU when none available
system.switch_cpus_1.iq.fu_full::SimdFloatAlu            0      0.00%     70.08% # attempts to use FU when none available
system.switch_cpus_1.iq.fu_full::SimdFloatCmp            0      0.00%     70.08% # attempts to use FU when none available
system.switch_cpus_1.iq.fu_full::SimdFloatCvt      2033998     19.08%     89.16% # attempts to use FU when none available
system.switch_cpus_1.iq.fu_full::SimdFloatDiv         9317      0.09%     89.25% # attempts to use FU when none available
system.switch_cpus_1.iq.fu_full::SimdFloatMisc            0      0.00%     89.25% # attempts to use FU when none available
system.switch_cpus_1.iq.fu_full::SimdFloatMult       114070      1.07%     90.32% # attempts to use FU when none available
system.switch_cpus_1.iq.fu_full::SimdFloatMultAcc            0      0.00%     90.32% # attempts to use FU when none available
system.switch_cpus_1.iq.fu_full::SimdFloatSqrt            0      0.00%     90.32% # attempts to use FU when none available
system.switch_cpus_1.iq.fu_full::SimdReduceAdd            0      0.00%     90.32% # attempts to use FU when none available
system.switch_cpus_1.iq.fu_full::SimdReduceAlu            0      0.00%     90.32% # attempts to use FU when none available
system.switch_cpus_1.iq.fu_full::SimdReduceCmp            0      0.00%     90.32% # attempts to use FU when none available
system.switch_cpus_1.iq.fu_full::SimdFloatReduceAdd            0      0.00%     90.32% # attempts to use FU when none available
system.switch_cpus_1.iq.fu_full::SimdFloatReduceCmp            0      0.00%     90.32% # attempts to use FU when none available
system.switch_cpus_1.iq.fu_full::SimdAes            0      0.00%     90.32% # attempts to use FU when none available
system.switch_cpus_1.iq.fu_full::SimdAesMix            0      0.00%     90.32% # attempts to use FU when none available
system.switch_cpus_1.iq.fu_full::SimdSha1Hash            0      0.00%     90.32% # attempts to use FU when none available
system.switch_cpus_1.iq.fu_full::SimdSha1Hash2            0      0.00%     90.32% # attempts to use FU when none available
system.switch_cpus_1.iq.fu_full::SimdSha256Hash            0      0.00%     90.32% # attempts to use FU when none available
system.switch_cpus_1.iq.fu_full::SimdSha256Hash2            0      0.00%     90.32% # attempts to use FU when none available
system.switch_cpus_1.iq.fu_full::SimdShaSigma2            0      0.00%     90.32% # attempts to use FU when none available
system.switch_cpus_1.iq.fu_full::SimdShaSigma3            0      0.00%     90.32% # attempts to use FU when none available
system.switch_cpus_1.iq.fu_full::SimdPredAlu            0      0.00%     90.32% # attempts to use FU when none available
system.switch_cpus_1.iq.fu_full::MemRead           35      0.00%     90.32% # attempts to use FU when none available
system.switch_cpus_1.iq.fu_full::MemWrite            2      0.00%     90.32% # attempts to use FU when none available
system.switch_cpus_1.iq.fu_full::FloatMemRead       557287      5.23%     95.55% # attempts to use FU when none available
system.switch_cpus_1.iq.fu_full::FloatMemWrite       474722      4.45%    100.00% # attempts to use FU when none available
system.switch_cpus_1.iq.fu_full::IprAccess            0      0.00%    100.00% # attempts to use FU when none available
system.switch_cpus_1.iq.fu_full::InstPrefetch            0      0.00%    100.00% # attempts to use FU when none available
system.switch_cpus_1.iq.int_alu_accesses    296534304                       # Number of integer alu accesses
system.switch_cpus_1.iq.int_inst_queue_reads   1250085322                       # Number of integer instruction queue reads
system.switch_cpus_1.iq.int_inst_queue_wakeup_accesses    289227396                       # Number of integer instruction queue wakeup accesses
system.switch_cpus_1.iq.int_inst_queue_writes    290685984                       # Number of integer instruction queue writes
system.switch_cpus_1.iq.iqInstsAdded        450893017                       # Number of instructions added to the IQ (excludes non-spec)
system.switch_cpus_1.iq.iqInstsIssued       450810574                       # Number of instructions issued
system.switch_cpus_1.iq.iqSquashedInstsExamined      1562840                       # Number of squashed instructions iterated over during squash; mainly for profiling
system.switch_cpus_1.iq.iqSquashedInstsIssued         1879                       # Number of squashed instructions issued
system.switch_cpus_1.iq.iqSquashedOperandsExamined      2628884                       # Number of squashed operands that are examined and possibly removed from graph
system.switch_cpus_1.iq.issued_per_cycle::samples    664058346                       # Number of insts issued each cycle
system.switch_cpus_1.iq.issued_per_cycle::mean     0.678872                       # Number of insts issued each cycle
system.switch_cpus_1.iq.issued_per_cycle::stdev     1.731777                       # Number of insts issued each cycle
system.switch_cpus_1.iq.issued_per_cycle::underflows            0      0.00%      0.00% # Number of insts issued each cycle
system.switch_cpus_1.iq.issued_per_cycle::0    543903185     81.91%     81.91% # Number of insts issued each cycle
system.switch_cpus_1.iq.issued_per_cycle::1     27616635      4.16%     86.06% # Number of insts issued each cycle
system.switch_cpus_1.iq.issued_per_cycle::2     16731255      2.52%     88.58% # Number of insts issued each cycle
system.switch_cpus_1.iq.issued_per_cycle::3     14371683      2.16%     90.75% # Number of insts issued each cycle
system.switch_cpus_1.iq.issued_per_cycle::4     16741763      2.52%     93.27% # Number of insts issued each cycle
system.switch_cpus_1.iq.issued_per_cycle::5     14560301      2.19%     95.46% # Number of insts issued each cycle
system.switch_cpus_1.iq.issued_per_cycle::6     13292197      2.00%     97.46% # Number of insts issued each cycle
system.switch_cpus_1.iq.issued_per_cycle::7      7635975      1.15%     98.61% # Number of insts issued each cycle
system.switch_cpus_1.iq.issued_per_cycle::8      9205352      1.39%    100.00% # Number of insts issued each cycle
system.switch_cpus_1.iq.issued_per_cycle::overflows            0      0.00%    100.00% # Number of insts issued each cycle
system.switch_cpus_1.iq.issued_per_cycle::min_value            0                       # Number of insts issued each cycle
system.switch_cpus_1.iq.issued_per_cycle::max_value            8                       # Number of insts issued each cycle
system.switch_cpus_1.iq.issued_per_cycle::total    664058346                       # Number of insts issued each cycle
system.switch_cpus_1.iq.rate                 0.678868                       # Inst issue rate
system.switch_cpus_1.iq.vec_alu_accesses            0                       # Number of vector alu accesses
system.switch_cpus_1.iq.vec_inst_queue_reads            0                       # Number of vector instruction queue reads
system.switch_cpus_1.iq.vec_inst_queue_wakeup_accesses            0                       # Number of vector instruction queue wakeup accesses
system.switch_cpus_1.iq.vec_inst_queue_writes            0                       # Number of vector instruction queue writes
system.switch_cpus_1.itb.rdAccesses                 0                       # TLB accesses on read requests
system.switch_cpus_1.itb.rdMisses                   0                       # TLB misses on read requests
system.switch_cpus_1.itb.wrAccesses          47749021                       # TLB accesses on write requests
system.switch_cpus_1.itb.wrMisses                   5                       # TLB misses on write requests
system.switch_cpus_1.memDep0.conflictingLoads      1437687                       # Number of conflicting loads.
system.switch_cpus_1.memDep0.conflictingStores       179878                       # Number of conflicting stores.
system.switch_cpus_1.memDep0.insertedLoads     47987083                       # Number of loads inserted to the mem dependence unit.
system.switch_cpus_1.memDep0.insertedStores     21968826                       # Number of stores inserted to the mem dependence unit.
system.switch_cpus_1.misc_regfile_reads     168851488                       # number of misc regfile reads
system.switch_cpus_1.numCycles              664061807                       # number of cpu cycles simulated
system.switch_cpus_1.numWorkItemsCompleted            0                       # number of work items this cpu completed
system.switch_cpus_1.numWorkItemsStarted            0                       # number of work items this cpu started
system.switch_cpus_1.rename.BlockCycles     163660869                       # Number of cycles rename is blocking
system.switch_cpus_1.rename.CommittedMaps    558010862                       # Number of HB maps that are committed
system.switch_cpus_1.rename.IQFullEvents       875667                       # Number of times rename has blocked due to IQ full
system.switch_cpus_1.rename.IdleCycles       30139235                       # Number of cycles rename is idle
system.switch_cpus_1.rename.LQFullEvents     27746896                       # Number of times rename has blocked due to LQ full
system.switch_cpus_1.rename.ROBFullEvents      5585421                       # Number of times rename has blocked due to ROB full
system.switch_cpus_1.rename.RenameLookups   1039260900                       # Number of register rename lookups that rename has made
system.switch_cpus_1.rename.RenamedInsts    451690347                       # Number of instructions processed by rename
system.switch_cpus_1.rename.RenamedOperands    560790992                       # Number of destination operands rename has renamed
system.switch_cpus_1.rename.RunCycles        61686072                       # Number of cycles rename is running
system.switch_cpus_1.rename.SQFullEvents    372676907                       # Number of times rename has blocked due to SQ full
system.switch_cpus_1.rename.SquashCycles       119286                       # Number of cycles rename is squashing
system.switch_cpus_1.rename.UnblockCycles    408452872                       # Number of cycles rename is unblocking
system.switch_cpus_1.rename.UndoneMaps        2779890                       # Number of HB maps that are undone due to squashing
system.switch_cpus_1.rename.fp_rename_lookups    153543685                       # Number of floating rename lookups
system.switch_cpus_1.rename.int_rename_lookups    434936962                       # Number of integer rename lookups
system.switch_cpus_1.rename.serializeStallCycles            0                       # count of cycles rename stalled for serializing inst
system.switch_cpus_1.rename.serializingInsts            0                       # count of serializing insts renamed
system.switch_cpus_1.rename.skidInsts        50877439                       # count of insts added to the skid buffer
system.switch_cpus_1.rename.tempSerializingInsts            0                       # count of temporary serializing insts renamed
system.switch_cpus_1.rob.rob_reads         1069846778                       # The number of ROB reads
system.switch_cpus_1.rob.rob_writes         902051528                       # The number of ROB writes
system.switch_cpus_1.timesIdled                    31                       # Number of times that the entire CPU went into an idle state and unscheduled itself
system.tol2bus.snoop_filter.hit_multi_requests            0                       # Number of requests hitting in the snoop filter with multiple (>1) holders of the requested data.
system.tol2bus.snoop_filter.hit_multi_snoops            0                       # Number of snoops hitting in the snoop filter with multiple (>1) holders of the requested data.
system.tol2bus.snoop_filter.hit_single_requests      6532933                       # Number of requests hitting in the snoop filter with a single holder of the requested data.
system.tol2bus.snoop_filter.hit_single_snoops       175821                       # Number of snoops hitting in the snoop filter with a single holder of the requested data.
system.tol2bus.snoop_filter.tot_requests     13065833                       # Total number of requests made to the snoop filter.
system.tol2bus.snoop_filter.tot_snoops         175821                       # Total number of snoops made to the snoop filter.
system.tol3bus.snoop_filter.hit_multi_requests            0                       # Number of requests hitting in the snoop filter with multiple (>1) holders of the requested data.
system.tol3bus.snoop_filter.hit_multi_snoops            0                       # Number of snoops hitting in the snoop filter with multiple (>1) holders of the requested data.
system.tol3bus.snoop_filter.hit_single_requests      6498447                       # Number of requests hitting in the snoop filter with a single holder of the requested data.
system.tol3bus.snoop_filter.hit_single_snoops      1218284                       # Number of snoops hitting in the snoop filter with a single holder of the requested data.
system.tol3bus.snoop_filter.tot_requests     12996899                       # Total number of requests made to the snoop filter.
system.tol3bus.snoop_filter.tot_snoops        1218284                       # Total number of snoops made to the snoop filter.
system.membus.trans_dist::ReadResp            4563176                       # Transaction distribution
system.membus.trans_dist::WritebackDirty      1868320                       # Transaction distribution
system.membus.trans_dist::CleanEvict          4563701                       # Transaction distribution
system.membus.trans_dist::ReadExReq           1868854                       # Transaction distribution
system.membus.trans_dist::ReadExResp          1868854                       # Transaction distribution
system.membus.trans_dist::ReadSharedReq       4563176                       # Transaction distribution
system.membus.pkt_count_system.l3.mem_side::system.mem_ctrls.port     19296081                       # Packet count per connected master and slave (bytes)
system.membus.pkt_count_system.l3.mem_side::total     19296081                       # Packet count per connected master and slave (bytes)
system.membus.pkt_count::total               19296081                       # Packet count per connected master and slave (bytes)
system.membus.pkt_size_system.l3.mem_side::system.mem_ctrls.port    531222400                       # Cumulative packet size per connected master and slave (bytes)
system.membus.pkt_size_system.l3.mem_side::total    531222400                       # Cumulative packet size per connected master and slave (bytes)
system.membus.pkt_size::total               531222400                       # Cumulative packet size per connected master and slave (bytes)
system.membus.snoops                                0                       # Total snoops (count)
system.membus.snoopTraffic                          0                       # Total snoop traffic (bytes)
system.membus.snoop_fanout::samples           6432030                       # Request fanout histogram
system.membus.snoop_fanout::mean                    0                       # Request fanout histogram
system.membus.snoop_fanout::stdev                   0                       # Request fanout histogram
system.membus.snoop_fanout::underflows              0      0.00%      0.00% # Request fanout histogram
system.membus.snoop_fanout::0                 6432030    100.00%    100.00% # Request fanout histogram
system.membus.snoop_fanout::1                       0      0.00%    100.00% # Request fanout histogram
system.membus.snoop_fanout::overflows               0      0.00%    100.00% # Request fanout histogram
system.membus.snoop_fanout::min_value               0                       # Request fanout histogram
system.membus.snoop_fanout::max_value               0                       # Request fanout histogram
system.membus.snoop_fanout::total             6432030                       # Request fanout histogram
system.membus.reqLayer2.occupancy         22206665000                       # Layer occupancy (ticks)
system.membus.reqLayer2.utilization               6.7                       # Layer utilization (%)
system.membus.respLayer1.occupancy        34016047500                       # Layer occupancy (ticks)
system.membus.respLayer1.utilization             10.2                       # Layer utilization (%)
system.membus.power_state.pwrStateResidencyTicks::UNDEFINED 1553185189000                       # Cumulative time (in ticks) in various power states
system.switch_cpus_1.dtb.walker.power_state.pwrStateResidencyTicks::UNDEFINED 1553185189000                       # Cumulative time (in ticks) in various power states
system.switch_cpus_1.itb.walker.power_state.pwrStateResidencyTicks::UNDEFINED 1553185189000                       # Cumulative time (in ticks) in various power states
system.switch_cpus_1.power_state.pwrStateResidencyTicks::OFF 1553185189000                       # Cumulative time (in ticks) in various power states
system.switch_cpus.dtb.walker.power_state.pwrStateResidencyTicks::UNDEFINED 1553185189000                       # Cumulative time (in ticks) in various power states
system.switch_cpus.itb.walker.power_state.pwrStateResidencyTicks::UNDEFINED 1553185189000                       # Cumulative time (in ticks) in various power states
system.switch_cpus.power_state.numTransitions            1                       # Number of power state transitions
system.switch_cpus.power_state.pwrStateResidencyTicks::OFF 1553185189000                       # Cumulative time (in ticks) in various power states
system.tol2bus.trans_dist::ReadResp           4664031                       # Transaction distribution
system.tol2bus.trans_dist::WritebackDirty      3737228                       # Transaction distribution
system.tol2bus.trans_dist::WritebackClean           58                       # Transaction distribution
system.tol2bus.trans_dist::CleanEvict         5882681                       # Transaction distribution
system.tol2bus.trans_dist::UpgradeReq              34                       # Transaction distribution
system.tol2bus.trans_dist::UpgradeResp             34                       # Transaction distribution
system.tol2bus.trans_dist::ReadExReq          1868868                       # Transaction distribution
system.tol2bus.trans_dist::ReadExResp         1868868                       # Transaction distribution
system.tol2bus.trans_dist::ReadCleanReq       4664032                       # Transaction distribution
system.tol2bus.pkt_count_system.cpu.icache.mem_side::system.l2.cpu_side          174                       # Packet count per connected master and slave (bytes)
system.tol2bus.pkt_count_system.cpu.dcache.mem_side::system.l2.cpu_side     19598592                       # Packet count per connected master and slave (bytes)
system.tol2bus.pkt_count::total              19598766                       # Packet count per connected master and slave (bytes)
system.tol2bus.pkt_size_system.cpu.icache.mem_side::system.l2.cpu_side         7424                       # Cumulative packet size per connected master and slave (bytes)
system.tol2bus.pkt_size_system.cpu.dcache.mem_side::system.l2.cpu_side    537711936                       # Cumulative packet size per connected master and slave (bytes)
system.tol2bus.pkt_size::total              537719360                       # Cumulative packet size per connected master and slave (bytes)
system.tol2bus.snoops                         3087068                       # Total snoops (count)
system.tol2bus.snoopTraffic                 119572480                       # Total snoop traffic (bytes)
system.tol2bus.snoop_fanout::samples          9620002                       # Request fanout histogram
system.tol2bus.snoop_fanout::mean            0.018277                       # Request fanout histogram
system.tol2bus.snoop_fanout::stdev           0.133950                       # Request fanout histogram
system.tol2bus.snoop_fanout::underflows             0      0.00%      0.00% # Request fanout histogram
system.tol2bus.snoop_fanout::0                9444181     98.17%     98.17% # Request fanout histogram
system.tol2bus.snoop_fanout::1                 175821      1.83%    100.00% # Request fanout histogram
system.tol2bus.snoop_fanout::2                      0      0.00%    100.00% # Request fanout histogram
system.tol2bus.snoop_fanout::3                      0      0.00%    100.00% # Request fanout histogram
system.tol2bus.snoop_fanout::4                      0      0.00%    100.00% # Request fanout histogram
system.tol2bus.snoop_fanout::overflows              0      0.00%    100.00% # Request fanout histogram
system.tol2bus.snoop_fanout::min_value              0                       # Request fanout histogram
system.tol2bus.snoop_fanout::max_value              1                       # Request fanout histogram
system.tol2bus.snoop_fanout::total            9620002                       # Request fanout histogram
system.tol2bus.reqLayer0.occupancy         8401882500                       # Layer occupancy (ticks)
system.tol2bus.reqLayer0.utilization              2.5                       # Layer utilization (%)
system.tol2bus.respLayer1.occupancy        9799278500                       # Layer occupancy (ticks)
system.tol2bus.respLayer1.utilization             3.0                       # Layer utilization (%)
system.tol2bus.respLayer0.occupancy             87499                       # Layer occupancy (ticks)
system.tol2bus.respLayer0.utilization             0.0                       # Layer utilization (%)
system.tol2bus.power_state.pwrStateResidencyTicks::UNDEFINED 1553185189000                       # Cumulative time (in ticks) in various power states
system.voltage_domain.voltage                       1                       # Voltage in Volts
system.clk_domain.clock                          1000                       # Clock period in ticks
system.l2.demand_hits::.switch_cpus_1.data        34448                       # number of demand (read+write) hits
system.l2.demand_hits::total                    34448                       # number of demand (read+write) hits
system.l2.overall_hits::.switch_cpus_1.data        34448                       # number of overall hits
system.l2.overall_hits::total                   34448                       # number of overall hits
system.l2.demand_misses::.switch_cpus_1.inst           58                       # number of demand (read+write) misses
system.l2.demand_misses::.switch_cpus_1.data      6498394                       # number of demand (read+write) misses
system.l2.demand_misses::total                6498452                       # number of demand (read+write) misses
system.l2.overall_misses::.switch_cpus_1.inst           58                       # number of overall misses
system.l2.overall_misses::.switch_cpus_1.data      6498394                       # number of overall misses
system.l2.overall_misses::total               6498452                       # number of overall misses
system.l2.demand_miss_latency::.switch_cpus_1.inst      5460000                       # number of demand (read+write) miss cycles
system.l2.demand_miss_latency::.switch_cpus_1.data 622645560500                       # number of demand (read+write) miss cycles
system.l2.demand_miss_latency::total     622651020500                       # number of demand (read+write) miss cycles
system.l2.overall_miss_latency::.switch_cpus_1.inst      5460000                       # number of overall miss cycles
system.l2.overall_miss_latency::.switch_cpus_1.data 622645560500                       # number of overall miss cycles
system.l2.overall_miss_latency::total    622651020500                       # number of overall miss cycles
system.l2.demand_accesses::.switch_cpus_1.inst           58                       # number of demand (read+write) accesses
system.l2.demand_accesses::.switch_cpus_1.data      6532842                       # number of demand (read+write) accesses
system.l2.demand_accesses::total              6532900                       # number of demand (read+write) accesses
system.l2.overall_accesses::.switch_cpus_1.inst           58                       # number of overall (read+write) accesses
system.l2.overall_accesses::.switch_cpus_1.data      6532842                       # number of overall (read+write) accesses
system.l2.overall_accesses::total             6532900                       # number of overall (read+write) accesses
system.l2.demand_miss_rate::.switch_cpus_1.inst            1                       # miss rate for demand accesses
system.l2.demand_miss_rate::.switch_cpus_1.data     0.994727                       # miss rate for demand accesses
system.l2.demand_miss_rate::total            0.994727                       # miss rate for demand accesses
system.l2.overall_miss_rate::.switch_cpus_1.inst            1                       # miss rate for overall accesses
system.l2.overall_miss_rate::.switch_cpus_1.data     0.994727                       # miss rate for overall accesses
system.l2.overall_miss_rate::total           0.994727                       # miss rate for overall accesses
system.l2.demand_avg_miss_latency::.switch_cpus_1.inst 94137.931034                       # average overall miss latency
system.l2.demand_avg_miss_latency::.switch_cpus_1.data 95815.298441                       # average overall miss latency
system.l2.demand_avg_miss_latency::total 95815.283471                       # average overall miss latency
system.l2.overall_avg_miss_latency::.switch_cpus_1.inst 94137.931034                       # average overall miss latency
system.l2.overall_avg_miss_latency::.switch_cpus_1.data 95815.298441                       # average overall miss latency
system.l2.overall_avg_miss_latency::total 95815.283471                       # average overall miss latency
system.l2.blocked_cycles::no_mshrs                  0                       # number of cycles access was blocked
[...]
system.cpu.dcache.overall_hits::.switch_cpus_1.data     38002710                       # number of overall hits
system.cpu.dcache.overall_hits::total       387452740                       # number of overall hits
system.cpu.dcache.demand_misses::.cpu.data     15147793                       # number of demand (read+write) misses
system.cpu.dcache.demand_misses::.switch_cpus.data       455724                       # number of demand (read+write) misses
system.cpu.dcache.demand_misses::.switch_cpus_1.data     30391417                       # number of demand (read+write) misses
system.cpu.dcache.demand_misses::total       45994934                       # number of demand (read+write) misses
system.cpu.dcache.overall_misses::.cpu.data     15147793                       # number of overall misses
system.cpu.dcache.overall_misses::.switch_cpus.data       455724                       # number of overall misses
system.cpu.dcache.overall_misses::.switch_cpus_1.data     30391417                       # number of overall misses
system.cpu.dcache.overall_misses::total      45994934                       # number of overall misses
system.cpu.dcache.demand_miss_latency::.switch_cpus.data  41667443500                       # number of demand (read+write) miss cycles
system.cpu.dcache.demand_miss_latency::.switch_cpus_1.data 2518422360876                       # number of demand (read+write) miss cycles
system.cpu.dcache.demand_miss_latency::total 2560089804376                       # number of demand (read+write) miss cycles
system.cpu.dcache.overall_miss_latency::.switch_cpus.data  41667443500                       # number of overall miss cycles
system.cpu.dcache.overall_miss_latency::.switch_cpus_1.data 2518422360876                       # number of overall miss cycles
system.cpu.dcache.overall_miss_latency::total 2560089804376                       # number of overall miss cycles
system.cpu.dcache.demand_accesses::.cpu.data    338483573                       # number of demand (read+write) accesses
system.cpu.dcache.demand_accesses::.switch_cpus.data     26569974                       # number of demand (read+write) accesses
system.cpu.dcache.demand_accesses::.switch_cpus_1.data     68394127                       # number of demand (read+write) accesses
system.cpu.dcache.demand_accesses::total    433447674                       # number of demand (read+write) accesses
system.cpu.dcache.overall_accesses::.cpu.data    338483573                       # number of overall (read+write) accesses
system.cpu.dcache.overall_accesses::.switch_cpus.data     26569974                       # number of overall (read+write) accesses
system.cpu.dcache.overall_accesses::.switch_cpus_1.data     68394127                       # number of overall (read+write) accesses
system.cpu.dcache.overall_accesses::total    433447674                       # number of overall (read+write) accesses
system.cpu.dcache.demand_miss_rate::.cpu.data     0.044752                       # miss rate for demand accesses
system.cpu.dcache.demand_miss_rate::.switch_cpus.data     0.017152                       # miss rate for demand accesses
system.cpu.dcache.demand_miss_rate::.switch_cpus_1.data     0.444357                       # miss rate for demand accesses
system.cpu.dcache.demand_miss_rate::total     0.106114                       # miss rate for demand accesses
system.cpu.dcache.overall_miss_rate::.cpu.data     0.044752                       # miss rate for overall accesses
system.cpu.dcache.overall_miss_rate::.switch_cpus.data     0.017152                       # miss rate for overall accesses
system.cpu.dcache.overall_miss_rate::.switch_cpus_1.data     0.444357                       # miss rate for overall accesses
system.cpu.dcache.overall_miss_rate::total     0.106114                       # miss rate for overall accesses
system.cpu.dcache.demand_avg_miss_latency::.switch_cpus.data 91431.312593                       # average overall miss latency
system.cpu.dcache.demand_avg_miss_latency::.switch_cpus_1.data 82866.236901                       # average overall miss latency
system.cpu.dcache.demand_avg_miss_latency::total 55660.256070                       # average overall miss latency
system.cpu.dcache.overall_avg_miss_latency::.switch_cpus.data 91431.312593                       # average overall miss latency
system.cpu.dcache.overall_avg_miss_latency::.switch_cpus_1.data 82866.236901                       # average overall miss latency
system.cpu.dcache.overall_avg_miss_latency::total 55660.256070                       # average overall miss latency
system.cpu.dcache.blocked_cycles::no_mshrs      5153324                       # number of cycles access was blocked
system.cpu.dcache.blocked_cycles::no_targets            0                       # number of cycles access was blocked
system.cpu.dcache.blocked::no_mshrs             87592                       # number of cycles access was blocked
system.cpu.dcache.blocked::no_targets               0                       # number of cycles access was blocked
system.cpu.dcache.avg_blocked_cycles::no_mshrs    58.833272                       # average number of cycles each access was blocked
system.cpu.dcache.avg_blocked_cycles::no_targets          nan                       # average number of cycles each access was blocked
system.cpu.dcache.writebacks::.writebacks      8748688                       # number of writebacks
system.cpu.dcache.writebacks::total           8748688                       # number of writebacks
system.cpu.dcache.demand_mshr_hits::.switch_cpus_1.data     23858542                       # number of demand (read+write) MSHR hits
system.cpu.dcache.demand_mshr_hits::total     23858542                       # number of demand (read+write) MSHR hits
system.cpu.dcache.overall_mshr_hits::.switch_cpus_1.data     23858542                       # number of overall MSHR hits
system.cpu.dcache.overall_mshr_hits::total     23858542                       # number of overall MSHR hits
system.cpu.dcache.demand_mshr_misses::.switch_cpus.data       455724                       # number of demand (read+write) MSHR misses
system.cpu.dcache.demand_mshr_misses::.switch_cpus_1.data      6532875                       # number of demand (read+write) MSHR misses
system.cpu.dcache.demand_mshr_misses::total      6988599                       # number of demand (read+write) MSHR misses
system.cpu.dcache.overall_mshr_misses::.switch_cpus.data       455724                       # number of overall MSHR misses
system.cpu.dcache.overall_mshr_misses::.switch_cpus_1.data      6532875                       # number of overall MSHR misses
system.cpu.dcache.overall_mshr_misses::total      6988599                       # number of overall MSHR misses
system.cpu.dcache.demand_mshr_miss_latency::.switch_cpus.data  41211719500                       # number of demand (read+write) MSHR miss cycles
system.cpu.dcache.demand_mshr_miss_latency::.switch_cpus_1.data 632869788876                       # number of demand (read+write) MSHR miss cycles
system.cpu.dcache.demand_mshr_miss_latency::total 674081508376                       # number of demand (read+write) MSHR miss cycles
system.cpu.dcache.overall_mshr_miss_latency::.switch_cpus.data  41211719500                       # number of overall MSHR miss cycles
system.cpu.dcache.overall_mshr_miss_latency::.switch_cpus_1.data 632869788876                       # number of overall MSHR miss cycles
system.cpu.dcache.overall_mshr_miss_latency::total 674081508376                       # number of overall MSHR miss cycles
system.cpu.dcache.demand_mshr_miss_rate::.switch_cpus.data     0.017152                       # mshr miss rate for demand accesses
system.cpu.dcache.demand_mshr_miss_rate::.switch_cpus_1.data     0.095518                       # mshr miss rate for demand accesses
system.cpu.dcache.demand_mshr_miss_rate::total     0.016123                       # mshr miss rate for demand accesses
system.cpu.dcache.overall_mshr_miss_rate::.switch_cpus.data     0.017152                       # mshr miss rate for overall accesses
system.cpu.dcache.overall_mshr_miss_rate::.switch_cpus_1.data     0.095518                       # mshr miss rate for overall accesses
system.cpu.dcache.overall_mshr_miss_rate::total     0.016123                       # mshr miss rate for overall accesses
system.cpu.dcache.demand_avg_mshr_miss_latency::.switch_cpus.data 90431.312593                       # average overall mshr miss latency
system.cpu.dcache.demand_avg_mshr_miss_latency::.switch_cpus_1.data 96874.620879                       # average overall mshr miss latency
system.cpu.dcache.demand_avg_mshr_miss_latency::total 96454.455088                       # average overall mshr miss latency
system.cpu.dcache.overall_avg_mshr_miss_latency::.switch_cpus.data 90431.312593                       # average overall mshr miss latency
system.cpu.dcache.overall_avg_mshr_miss_latency::.switch_cpus_1.data 96874.620879                       # average overall mshr miss latency
system.cpu.dcache.overall_avg_mshr_miss_latency::total 96454.455088                       # average overall mshr miss latency
system.cpu.dcache.replacements               21918999                       # number of replacements
system.cpu.dcache.ReadReq_hits::.cpu.data    213826296                       # number of ReadReq hits
system.cpu.dcache.ReadReq_hits::.switch_cpus.data     17250923                       # number of ReadReq hits
system.cpu.dcache.ReadReq_hits::.switch_cpus_1.data     18038151                       # number of ReadReq hits
system.cpu.dcache.ReadReq_hits::total       249115370                       # number of ReadReq hits
system.cpu.dcache.ReadReq_misses::.cpu.data      8268007                       # number of ReadReq misses
system.cpu.dcache.ReadReq_misses::.switch_cpus.data       455724                       # number of ReadReq misses
system.cpu.dcache.ReadReq_misses::.switch_cpus_1.data     28522515                       # number of ReadReq misses
system.cpu.dcache.ReadReq_misses::total      37246246                       # number of ReadReq misses
system.cpu.dcache.ReadReq_miss_latency::.switch_cpus.data  41667443500                       # number of ReadReq miss cycles
system.cpu.dcache.ReadReq_miss_latency::.switch_cpus_1.data 2327926266000                       # number of ReadReq miss cycles
system.cpu.dcache.ReadReq_miss_latency::total 2369593709500                       # number of ReadReq miss cycles
system.cpu.dcache.ReadReq_accesses::.cpu.data    222094303                       # number of ReadReq accesses(hits+misses)
system.cpu.dcache.ReadReq_accesses::.switch_cpus.data     17706647                       # number of ReadReq accesses(hits+misses)
system.cpu.dcache.ReadReq_accesses::.switch_cpus_1.data     46560666                       # number of ReadReq accesses(hits+misses)
system.cpu.dcache.ReadReq_accesses::total    286361616                       # number of ReadReq accesses(hits+misses)
system.cpu.dcache.ReadReq_miss_rate::.cpu.data     0.037227                       # miss rate for ReadReq accesses
system.cpu.dcache.ReadReq_miss_rate::.switch_cpus.data     0.025737                       # miss rate for ReadReq accesses
system.cpu.dcache.ReadReq_miss_rate::.switch_cpus_1.data     0.612588                       # miss rate for ReadReq accesses
system.cpu.dcache.ReadReq_miss_rate::total     0.130067                       # miss rate for ReadReq accesses
system.cpu.dcache.ReadReq_avg_miss_latency::.switch_cpus.data 91431.312593                       # average ReadReq miss latency
system.cpu.dcache.ReadReq_avg_miss_latency::.switch_cpus_1.data 81617.145823                       # average ReadReq miss latency
system.cpu.dcache.ReadReq_avg_miss_latency::total 63619.665442                       # average ReadReq miss latency
system.cpu.dcache.ReadReq_mshr_hits::.switch_cpus_1.data     23858541                       # number of ReadReq MSHR hits
system.cpu.dcache.ReadReq_mshr_hits::total     23858541                       # number of ReadReq MSHR hits
system.cpu.dcache.ReadReq_mshr_misses::.switch_cpus.data       455724                       # number of ReadReq MSHR misses
system.cpu.dcache.ReadReq_mshr_misses::.switch_cpus_1.data      4663974                       # number of ReadReq MSHR misses
system.cpu.dcache.ReadReq_mshr_misses::total      5119698                       # number of ReadReq MSHR misses
system.cpu.dcache.ReadReq_mshr_miss_latency::.switch_cpus.data  41211719500                       # number of ReadReq MSHR miss cycles
system.cpu.dcache.ReadReq_mshr_miss_latency::.switch_cpus_1.data 444242596000                       # number of ReadReq MSHR miss cycles
system.cpu.dcache.ReadReq_mshr_miss_latency::total 485454315500                       # number of ReadReq MSHR miss cycles
system.cpu.dcache.ReadReq_mshr_miss_rate::.switch_cpus.data     0.025737                       # mshr miss rate for ReadReq accesses
system.cpu.dcache.ReadReq_mshr_miss_rate::.switch_cpus_1.data     0.100170                       # mshr miss rate for ReadReq accesses
system.cpu.dcache.ReadReq_mshr_miss_rate::total     0.017878                       # mshr miss rate for ReadReq accesses
system.cpu.dcache.ReadReq_avg_mshr_miss_latency::.switch_cpus.data 90431.312593                       # average ReadReq mshr miss latency
system.cpu.dcache.ReadReq_avg_mshr_miss_latency::.switch_cpus_1.data 95249.801135                       # average ReadReq mshr miss latency
system.cpu.dcache.ReadReq_avg_mshr_miss_latency::total 94820.888947                       # average ReadReq mshr miss latency
system.cpu.dcache.WriteReq_hits::.cpu.data    109509484                       # number of WriteReq hits
system.cpu.dcache.WriteReq_hits::.switch_cpus.data      8863327                       # number of WriteReq hits
system.cpu.dcache.WriteReq_hits::.switch_cpus_1.data     19964559                       # number of WriteReq hits
system.cpu.dcache.WriteReq_hits::total      138337370                       # number of WriteReq hits
system.cpu.dcache.WriteReq_misses::.cpu.data      6879786                       # number of WriteReq misses
system.cpu.dcache.WriteReq_misses::.switch_cpus_1.data      1868902                       # number of WriteReq misses
system.cpu.dcache.WriteReq_misses::total      8748688                       # number of WriteReq misses
system.cpu.dcache.WriteReq_miss_latency::.switch_cpus_1.data 190496094876                       # number of WriteReq miss cycles
system.cpu.dcache.WriteReq_miss_latency::total 190496094876                       # number of WriteReq miss cycles
system.cpu.dcache.WriteReq_accesses::.cpu.data    116389270                       # number of WriteReq accesses(hits+misses)
system.cpu.dcache.WriteReq_accesses::.switch_cpus.data      8863327                       # number of WriteReq accesses(hits+misses)
system.cpu.dcache.WriteReq_accesses::.switch_cpus_1.data     21833461                       # number of WriteReq accesses(hits+misses)
system.cpu.dcache.WriteReq_accesses::total    147086058                       # number of WriteReq accesses(hits+misses)
system.cpu.dcache.WriteReq_miss_rate::.cpu.data     0.059110                       # miss rate for WriteReq accesses
system.cpu.dcache.WriteReq_miss_rate::.switch_cpus_1.data     0.085598                       # miss rate for WriteReq accesses
system.cpu.dcache.WriteReq_miss_rate::total     0.059480                       # miss rate for WriteReq accesses
system.cpu.dcache.WriteReq_avg_miss_latency::.switch_cpus_1.data 101929.418919                       # average WriteReq miss latency
system.cpu.dcache.WriteReq_avg_miss_latency::total 21774.247164                       # average WriteReq miss latency
system.cpu.dcache.WriteReq_mshr_hits::.switch_cpus_1.data            1                       # number of WriteReq MSHR hits
system.cpu.dcache.WriteReq_mshr_hits::total            1                       # number of WriteReq MSHR hits
system.cpu.dcache.WriteReq_mshr_misses::.switch_cpus_1.data      1868901                       # number of WriteReq MSHR misses
system.cpu.dcache.WriteReq_mshr_misses::total      1868901                       # number of WriteReq MSHR misses
system.cpu.dcache.WriteReq_mshr_miss_latency::.switch_cpus_1.data 188627192876                       # number of WriteReq MSHR miss cycles
system.cpu.dcache.WriteReq_mshr_miss_latency::total 188627192876                       # number of WriteReq MSHR miss cycles
system.cpu.dcache.WriteReq_mshr_miss_rate::.switch_cpus_1.data     0.085598                       # mshr miss rate for WriteReq accesses
system.cpu.dcache.WriteReq_mshr_miss_rate::total     0.012706                       # mshr miss rate for WriteReq accesses
system.cpu.dcache.WriteReq_avg_mshr_miss_latency::.switch_cpus_1.data 100929.472923                       # average WriteReq mshr miss latency
system.cpu.dcache.WriteReq_avg_mshr_miss_latency::total 100929.472923                       # average WriteReq mshr miss latency
system.cpu.dcache.power_state.pwrStateResidencyTicks::UNDEFINED 1553185189000                       # Cumulative time (in ticks) in various power states
system.cpu.dcache.tags.tagsinuse           511.993072                       # Cycle average of tags in use
system.cpu.dcache.tags.total_refs           409589132                       # Total number of references to valid blocks.
system.cpu.dcache.tags.sampled_refs          21919511                       # Sample count of references to valid blocks.
system.cpu.dcache.tags.avg_refs             18.686052                       # Average number of references to valid blocks.
system.cpu.dcache.tags.warmup_cycle              1500                       # Cycle when the warmup percentage was hit.
system.cpu.dcache.tags.occ_blocks::.cpu.data   352.196594                       # Average occupied blocks per requestor
system.cpu.dcache.tags.occ_blocks::.switch_cpus.data    50.435540                       # Average occupied blocks per requestor
system.cpu.dcache.tags.occ_blocks::.switch_cpus_1.data   109.360939                       # Average occupied blocks per requestor
system.cpu.dcache.tags.occ_percent::.cpu.data     0.687884                       # Average percentage of cache occupancy
system.cpu.dcache.tags.occ_percent::.switch_cpus.data     0.098507                       # Average percentage of cache occupancy
system.cpu.dcache.tags.occ_percent::.switch_cpus_1.data     0.213596                       # Average percentage of cache occupancy
system.cpu.dcache.tags.occ_percent::total     0.999986                       # Average percentage of cache occupancy
system.cpu.dcache.tags.occ_task_id_blocks::1024          512                       # Occupied blocks per task id
system.cpu.dcache.tags.age_task_id_blocks_1024::0          195                       # Occupied blocks per task id
system.cpu.dcache.tags.age_task_id_blocks_1024::1          317                       # Occupied blocks per task id
system.cpu.dcache.tags.occ_task_id_percent::1024            1                       # Percentage of cache occupancy per task id
system.cpu.dcache.tags.tag_accesses        1755710207                       # Number of tag accesses
system.cpu.dcache.tags.data_accesses       1755710207                       # Number of data accesses
system.cpu.dcache.tags.power_state.pwrStateResidencyTicks::UNDEFINED 1553185189000                       # Cumulative time (in ticks) in various power states
system.cpu.power_state.numTransitions               2                       # Number of power state transitions
system.cpu.power_state.pwrStateResidencyTicks::ON 1066246568000                       # Cumulative time (in ticks) in various power states
system.cpu.power_state.pwrStateResidencyTicks::OFF 486938621000                       # Cumulative time (in ticks) in various power states

---------- End Simulation Statistics   ----------
