
---------- Begin Simulation Statistics ----------
final_tick                               1321062444500                       # Number of ticks from beginning of simulation (restored from checkpoints and never reset)
host_inst_rate                                 460619                       # Simulator instruction rate (inst/s)
host_mem_usage                                4553020                       # Number of bytes of host memory used
host_op_rate                                   780432                       # Simulator op (including micro ops) rate (op/s)
host_seconds                                  2822.29                       # Real time elapsed on the host
host_tick_rate                               66402715                       # Simulator tick rate (ticks/s)
sim_freq                                 1000000000000                       # Frequency of simulated ticks
sim_insts                                  1300000006                       # Number of instructions simulated
sim_ops                                    2202605300                       # Number of ops (including micro ops) simulated
sim_seconds                                  0.187408                       # Number of seconds simulated
sim_ticks                                187407697250                       # Number of ticks simulated
system.cpu.committedInsts                           0                       # Number of instructions committed
system.cpu.committedOps                             0                       # Number of ops (including micro ops) committed
system.cpu.dtb.rdAccesses                           0                       # TLB accesses on read requests
system.cpu.dtb.rdMisses                             0                       # TLB misses on read requests
system.cpu.dtb.wrAccesses                           0                       # TLB accesses on write requests
system.cpu.dtb.wrMisses                             0                       # TLB misses on write requests
system.cpu.idle_fraction                            0                       # Percentage of idle cycles
system.cpu.itb.rdAccesses                           0                       # TLB accesses on read requests
system.cpu.itb.rdMisses                             0                       # TLB misses on read requests
system.cpu.itb.wrAccesses                           0                       # TLB accesses on write requests
system.cpu.itb.wrMisses                             0                       # TLB misses on write requests
system.cpu.not_idle_fraction                        1                       # Percentage of non-idle cycles
system.cpu.numCycles                                0                       # number of cpu cycles simulated
system.cpu.numWorkItemsCompleted                    0                       # number of work items this cpu completed
system.cpu.numWorkItemsStarted                      0                       # number of work items this cpu started
system.cpu.num_busy_cycles                          0                       # Number of busy cycles
system.cpu.num_conditional_control_insts            0                       # number of instructions that are conditional controls
system.cpu.num_fp_alu_accesses                      0                       # Number of float alu accesses
system.cpu.num_fp_insts                             0                       # number of float instructions
system.cpu.num_fp_register_reads                    0                       # number of times the floating registers were read
system.cpu.num_fp_register_writes                   0                       # number of times the floating registers were written
system.cpu.num_func_calls                           0                       # number of times a function call or return occured
system.cpu.num_idle_cycles                          0                       # Number of idle cycles
system.cpu.num_int_alu_accesses                     0                       # Number of integer alu accesses
system.cpu.num_int_insts                            0                       # number of integer instructions
system.cpu.num_int_register_reads                   0                       # number of times the integer registers were read
system.cpu.num_int_register_writes                  0                       # number of times the integer registers were written
system.cpu.num_load_insts                           0                       # Number of load instructions
system.cpu.num_mem_refs                             0                       # number of memory refs
system.cpu.num_store_insts                          0                       # Number of store instructions
system.cpu.num_vec_alu_accesses                     0                       # Number of vector alu accesses
system.cpu.num_vec_insts                            0                       # number of vector instructions
system.cpu.num_vec_register_reads                   0                       # number of times the vector registers were read
system.cpu.num_vec_register_writes                  0                       # number of times the vector registers were written
system.cpu.op_class::No_OpClass                     0                       # Class of executed instruction
system.cpu.op_class::IntAlu                         0                       # Class of executed instruction
system.cpu.op_class::IntMult                        0                       # Class of executed instruction
system.cpu.op_class::IntDiv                         0                       # Class of executed instruction
system.cpu.op_class::FloatAdd                       0                       # Class of executed instruction
system.cpu.op_class::FloatCmp                       0                       # Class of executed instruction
system.cpu.op_class::FloatCvt                       0                       # Class of executed instruction
system.cpu.op_class::FloatMult                      0                       # Class of executed instruction
system.cpu.op_class::FloatMultAcc                   0                       # Class of executed instruction
system.cpu.op_class::FloatDiv                       0                       # Class of executed instruction
system.cpu.op_class::FloatMisc                      0                       # Class of executed instruction
system.cpu.op_class::FloatSqrt                      0                       # Class of executed instruction
system.cpu.op_class::SimdAdd                        0                       # Class of executed instruction
system.cpu.op_class::SimdAddAcc                     0                       # Class of executed instruction
system.cpu.op_class::SimdAlu                        0                       # Class of executed instruction
system.cpu.op_class::SimdCmp                        0                       # Class of executed instruction
system.cpu.op_class::SimdCvt                        0                       # Class of executed instruction
system.cpu.op_class::SimdMisc                       0                       # Class of executed instruction
system.cpu.op_class::SimdMult                       0                       # Class of executed instruction
system.cpu.op_class::SimdMultAcc                    0                       # Class of executed instruction
system.cpu.op_class::SimdShift                      0                       # Class of executed instruction
system.cpu.op_class::SimdShiftAcc                   0                       # Class of executed instruction
system.cpu.op_class::SimdDiv                        0                       # Class of executed instruction
system.cpu.op_class::SimdSqrt                       0                       # Class of executed instruction
system.cpu.op_class::SimdFloatAdd                   0                       # Class of executed instruction
system.cpu.op_class::SimdFloatAlu                   0                       # Class of executed instruction
system.cpu.op_class::SimdFloatCmp                   0                       # Class of executed instruction
system.cpu.op_class::SimdFloatCvt                   0                       # Class of executed instruction
system.cpu.op_class::SimdFloatDiv                   0                       # Class of executed instruction
system.cpu.op_class::SimdFloatMisc                  0                       # Class of executed instruction
system.cpu.op_class::SimdFloatMult                  0                       # Class of executed instruction
system.cpu.op_class::SimdFloatMultAcc               0                       # Class of executed instruction
system.cpu.op_class::SimdFloatSqrt                  0                       # Class of executed instruction
system.cpu.op_class::SimdReduceAdd                  0                       # Class of executed instruction
system.cpu.op_class::SimdReduceAlu                  0                       # Class of executed instruction
system.cpu.op_class::SimdReduceCmp                  0                       # Class of executed instruction
system.cpu.op_class::SimdFloatReduceAdd             0                       # Class of executed instruction
system.cpu.op_class::SimdFloatReduceCmp             0                       # Class of executed instruction
system.cpu.op_class::SimdAes                        0                       # Class of executed instruction
system.cpu.op_class::SimdAesMix                     0                       # Class of executed instruction
system.cpu.op_class::SimdSha1Hash                   0                       # Class of executed instruction
system.cpu.op_class::SimdSha1Hash2                  0                       # Class of executed instruction
system.cpu.op_class::SimdSha256Hash                 0                       # Class of executed instruction
system.cpu.op_class::SimdSha256Hash2                0                       # Class of executed instruction
system.cpu.op_class::SimdShaSigma2                  0                       # Class of executed instruction
system.cpu.op_class::SimdShaSigma3                  0                       # Class of executed instruction
system.cpu.op_class::SimdPredAlu                    0                       # Class of executed instruction
system.cpu.op_class::MemRead                        0                       # Class of executed instruction
system.cpu.op_class::MemWrite                       0                       # Class of executed instruction
system.cpu.op_class::FloatMemRead                   0                       # Class of executed instruction
system.cpu.op_class::FloatMemWrite                  0                       # Class of executed instruction
system.cpu.op_class::IprAccess                      0                       # Class of executed instruction
system.cpu.op_class::InstPrefetch                   0                       # Class of executed instruction
system.cpu.op_class::total                          0                       # Class of executed instruction
system.cpu.workload.numSyscalls                     0                       # Number of system calls
system.membus.snoop_filter.hit_multi_requests            0                       # Number of requests hitting in the snoop filter with multiple (>1) holders of the requested data.
system.membus.snoop_filter.hit_multi_snoops            0                       # Number of snoops hitting in the snoop filter with multiple (>1) holders of the requested data.
system.membus.snoop_filter.hit_single_requests       131981                       # Number of requests hitting in the snoop filter with a single holder of the requested data.
system.membus.snoop_filter.hit_single_snoops            0                       # Number of snoops hitting in the snoop filter with a single holder of the requested data.
system.membus.snoop_filter.tot_requests        263854                       # Total number of requests made to the snoop filter.
system.membus.snoop_filter.tot_snoops               0                       # Total number of snoops made to the snoop filter.
system.switch_cpus.committedInsts                   0                       # Number of instructions committed
system.switch_cpus.committedOps                     0                       # Number of ops (including micro ops) committed
system.switch_cpus.dtb.rdAccesses                   0                       # TLB accesses on read requests
system.switch_cpus.dtb.rdMisses                     0                       # TLB misses on read requests
system.switch_cpus.dtb.wrAccesses                   0                       # TLB accesses on write requests
system.switch_cpus.dtb.wrMisses                     0                       # TLB misses on write requests
system.switch_cpus.idle_fraction                    0                       # Percentage of idle cycles
system.switch_cpus.itb.rdAccesses                   0                       # TLB accesses on read requests
system.switch_cpus.itb.rdMisses                     0                       # TLB misses on read requests
system.switch_cpus.itb.wrAccesses                   0                       # TLB accesses on write requests
system.switch_cpus.itb.wrMisses                     0                       # TLB misses on write requests
system.switch_cpus.not_idle_fraction                1                       # Percentage of non-idle cycles
system.switch_cpus.numCycles                        0                       # number of cpu cycles simulated
system.switch_cpus.numWorkItemsCompleted            0                       # number of work items this cpu completed
system.switch_cpus.numWorkItemsStarted              0                       # number of work items this cpu started
system.switch_cpus.num_busy_cycles                  0                       # Number of busy cycles
system.switch_cpus.num_conditional_control_insts            0                       # number of instructions that are conditional controls
system.switch_cpus.num_fp_alu_accesses              0                       # Number of float alu accesses
system.switch_cpus.num_fp_insts                     0                       # number of float instructions
system.switch_cpus.num_fp_register_reads            0                       # number of times the floating registers were read
system.switch_cpus.num_fp_register_writes            0                       # number of times the floating registers were written
system.switch_cpus.num_func_calls                   0                       # number of times a function call or return occured
system.switch_cpus.num_idle_cycles                  0                       # Number of idle cycles
system.switch_cpus.num_int_alu_accesses             0                       # Number of integer alu accesses
system.switch_cpus.num_int_insts                    0                       # number of integer instructions
system.switch_cpus.num_int_register_reads            0                       # number of times the integer registers were read
system.switch_cpus.num_int_register_writes            0                       # number of times the integer registers were written
system.switch_cpus.num_load_insts                   0                       # Number of load instructions
system.switch_cpus.num_mem_refs                     0                       # number of memory refs
system.switch_cpus.num_store_insts                  0                       # Number of store instructions
system.switch_cpus.num_vec_alu_accesses             0                       # Number of vector alu accesses
system.switch_cpus.num_vec_insts                    0                       # number of vector instructions
system.switch_cpus.num_vec_register_reads            0                       # number of times the vector registers were read
system.switch_cpus.num_vec_register_writes            0                       # number of times the vector registers were written
system.switch_cpus.op_class::No_OpClass             0                       # Class of executed instruction
system.switch_cpus.op_class::IntAlu                 0                       # Class of executed instruction
system.switch_cpus.op_class::IntMult                0                       # Class of executed instruction
system.switch_cpus.op_class::IntDiv                 0                       # Class of executed instruction
system.switch_cpus.op_class::FloatAdd               0                       # Class of executed instruction
system.switch_cpus.op_class::FloatCmp               0                       # Class of executed instruction
system.switch_cpus.op_class::FloatCvt               0                       # Class of executed instruction
system.switch_cpus.op_class::FloatMult              0                       # Class of executed instruction
system.switch_cpus.op_class::FloatMultAcc            0                       # Class of executed instruction
system.switch_cpus.op_class::FloatDiv               0                       # Class of executed instruction
system.switch_cpus.op_class::FloatMisc              0                       # Class of executed instruction
system.switch_cpus.op_class::FloatSqrt              0                       # Class of executed instruction
system.switch_cpus.op_class::SimdAdd                0                       # Class of executed instruction
system.switch_cpus.op_class::SimdAddAcc             0                       # Class of executed instruction
system.switch_cpus.op_class::SimdAlu                0                       # Class of executed instruction
system.switch_cpus.op_class::SimdCmp                0                       # Class of executed instruction
system.switch_cpus.op_class::SimdCvt                0                       # Class of executed instruction
system.switch_cpus.op_class::SimdMisc               0                       # Class of executed instruction
system.switch_cpus.op_class::SimdMult               0                       # Class of executed instruction
system.switch_cpus.op_class::SimdMultAcc            0                       # Class of executed instruction
system.switch_cpus.op_class::SimdShift              0                       # Class of executed instruction
system.switch_cpus.op_class::SimdShiftAcc            0                       # Class of executed instruction
system.switch_cpus.op_class::SimdDiv                0                       # Class of executed instruction
system.switch_cpus.op_class::SimdSqrt               0                       # Class of executed instruction
system.switch_cpus.op_class::SimdFloatAdd            0                       # Class of executed instruction
system.switch_cpus.op_class::SimdFloatAlu            0                       # Class of executed instruction
system.switch_cpus.op_class::SimdFloatCmp            0                       # Class of executed instruction
system.switch_cpus.op_class::SimdFloatCvt            0                       # Class of executed instruction
system.switch_cpus.op_class::SimdFloatDiv            0                       # Class of executed instruction
system.switch_cpus.op_class::SimdFloatMisc            0                       # Class of executed instruction
system.switch_cpus.op_class::SimdFloatMult            0                       # Class of executed instruction
system.switch_cpus.op_class::SimdFloatMultAcc            0                       # Class of executed instruction
system.switch_cpus.op_class::SimdFloatSqrt            0                       # Class of executed instruction
system.switch_cpus.op_class::SimdReduceAdd            0                       # Class of executed instruction
system.switch_cpus.op_class::SimdReduceAlu            0                       # Class of executed instruction
system.switch_cpus.op_class::SimdReduceCmp            0                       # Class of executed instruction
system.switch_cpus.op_class::SimdFloatReduceAdd            0                       # Class of executed instruction
system.switch_cpus.op_class::SimdFloatReduceCmp            0                       # Class of executed instruction
system.switch_cpus.op_class::SimdAes                0                       # Class of executed instruction
system.switch_cpus.op_class::SimdAesMix             0                       # Class of executed instruction
system.switch_cpus.op_class::SimdSha1Hash            0                       # Class of executed instruction
system.switch_cpus.op_class::SimdSha1Hash2            0                       # Class of executed instruction
system.switch_cpus.op_class::SimdSha256Hash            0                       # Class of executed instruction
system.switch_cpus.op_class::SimdSha256Hash2            0                       # Class of executed instruction
system.switch_cpus.op_class::SimdShaSigma2            0                       # Class of executed instruction
system.switch_cpus.op_class::SimdShaSigma3            0                       # Class of executed instruction
system.switch_cpus.op_class::SimdPredAlu            0                       # Class of executed instruction
system.switch_cpus.op_class::MemRead                0                       # Class of executed instruction
system.switch_cpus.op_class::MemWrite               0                       # Class of executed instruction
system.switch_cpus.op_class::FloatMemRead            0                       # Class of executed instruction
system.switch_cpus.op_class::FloatMemWrite            0                       # Class of executed instruction
system.switch_cpus.op_class::IprAccess              0                       # Class of executed instruction
system.switch_cpus.op_class::InstPrefetch            0                       # Class of executed instruction
system.switch_cpus.op_class::total                  0                       # Class of executed instruction
system.switch_cpus_1.branchPred.BTBCorrect            0                       # Number of correct BTB predictions (this stat may not work properly.
system.switch_cpus_1.branchPred.BTBHitPct          nan                       # BTB Hit Percentage
system.switch_cpus_1.branchPred.BTBHits             0                       # Number of BTB hits
system.switch_cpus_1.branchPred.BTBLookups            0                       # Number of BTB lookups
system.switch_cpus_1.branchPred.RASInCorrect           38                       # Number of incorrect RAS predictions.
system.switch_cpus_1.branchPred.condIncorrect      8233364                       # Number of conditional branches incorrect
system.switch_cpus_1.branchPred.condPredicted     84462175                       # Number of conditional branches predicted
system.switch_cpus_1.branchPred.indirectHits     29457382                       # Number of indirect target hits.
system.switch_cpus_1.branchPred.indirectLookups     51673277                       # Number of indirect predictor lookups.
system.switch_cpus_1.branchPred.indirectMisses     22215895                       # Number of indirect misses.
system.switch_cpus_1.branchPred.lookups      91880034                       # Number of BP lookups
system.switch_cpus_1.branchPred.usedRAS       2624558                       # Number of times the RAS was used to get a target.
system.switch_cpus_1.branchPredindirectMispredicted      4759185                       # Number of mispredicted indirect branches.
system.switch_cpus_1.cc_regfile_reads       259013951                       # number of cc regfile reads
system.switch_cpus_1.cc_regfile_writes      225955859                       # number of cc regfile writes
system.switch_cpus_1.commit.amos                    0                       # Number of atomic instructions committed
system.switch_cpus_1.commit.branchMispredicts      8233657                       # The number of times a branch was mispredicted
system.switch_cpus_1.commit.branches         39490397                       # Number of branches committed
system.switch_cpus_1.commit.bw_lim_events     23039759                       # number cycles where commit BW limit reached
system.switch_cpus_1.commit.commitSquashedInsts    331222367                       # The number of squashed insts skipped by commit
system.switch_cpus_1.commit.committedInsts    250000004                       # Number of instructions committed
system.switch_cpus_1.commit.committedOps    421666921                       # Number of ops (including micro ops) committed
system.switch_cpus_1.commit.committed_per_cycle::samples    325901327                       # Number of insts commited each cycle
system.switch_cpus_1.commit.committed_per_cycle::mean     1.293848                       # Number of insts commited each cycle
system.switch_cpus_1.commit.committed_per_cycle::stdev     2.282022                       # Number of insts commited each cycle
system.switch_cpus_1.commit.committed_per_cycle::underflows            0      0.00%      0.00% # Number of insts commited each cycle
system.switch_cpus_1.commit.committed_per_cycle::0    193819598     59.47%     59.47% # Number of insts commited each cycle
system.switch_cpus_1.commit.committed_per_cycle::1     53924749     16.55%     76.02% # Number of insts commited each cycle
system.switch_cpus_1.commit.committed_per_cycle::2     17390963      5.34%     81.35% # Number of insts commited each cycle
system.switch_cpus_1.commit.committed_per_cycle::3     19193650      5.89%     87.24% # Number of insts commited each cycle
system.switch_cpus_1.commit.committed_per_cycle::4     10109762      3.10%     90.35% # Number of insts commited each cycle
system.switch_cpus_1.commit.committed_per_cycle::5      2942258      0.90%     91.25% # Number of insts commited each cycle
system.switch_cpus_1.commit.committed_per_cycle::6      2453230      0.75%     92.00% # Number of insts commited each cycle
system.switch_cpus_1.commit.committed_per_cycle::7      3027358      0.93%     92.93% # Number of insts commited each cycle
system.switch_cpus_1.commit.committed_per_cycle::8     23039759      7.07%    100.00% # Number of insts commited each cycle
system.switch_cpus_1.commit.committed_per_cycle::overflows            0      0.00%    100.00% # Number of insts commited each cycle
system.switch_cpus_1.commit.committed_per_cycle::min_value            0                       # Number of insts commited each cycle
system.switch_cpus_1.commit.committed_per_cycle::max_value            8                       # Number of insts commited each cycle
system.switch_cpus_1.commit.committed_per_cycle::total    325901327                       # Number of insts commited each cycle
system.switch_cpus_1.commit.fp_insts                0                       # Number of committed floating point instructions.
system.switch_cpus_1.commit.function_calls      1582587                       # Number of function calls committed.
system.switch_cpus_1.commit.int_insts       421288658                       # Number of committed integer instructions.
system.switch_cpus_1.commit.loads            79739108                       # Number of loads committed
system.switch_cpus_1.commit.membars                 0                       # Number of memory barriers committed
system.switch_cpus_1.commit.op_class_0::No_OpClass       378162      0.09%      0.09% # Class of committed instruction
system.switch_cpus_1.commit.op_class_0::IntAlu    318830191     75.61%     75.70% # Class of committed instruction
system.switch_cpus_1.commit.op_class_0::IntMult           65      0.00%     75.70% # Class of committed instruction
system.switch_cpus_1.commit.op_class_0::IntDiv          135      0.00%     75.70% # Class of committed instruction
system.switch_cpus_1.commit.op_class_0::FloatAdd            0      0.00%     75.70% # Class of committed instruction
system.switch_cpus_1.commit.op_class_0::FloatCmp            0      0.00%     75.70% # Class of committed instruction
system.switch_cpus_1.commit.op_class_0::FloatCvt            0      0.00%     75.70% # Class of committed instruction
system.switch_cpus_1.commit.op_class_0::FloatMult            0      0.00%     75.70% # Class of committed instruction
system.switch_cpus_1.commit.op_class_0::FloatMultAcc            0      0.00%     75.70% # Class of committed instruction
system.switch_cpus_1.commit.op_class_0::FloatDiv            0      0.00%     75.70% # Class of committed instruction
system.switch_cpus_1.commit.op_class_0::FloatMisc            0      0.00%     75.70% # Class of committed instruction
system.switch_cpus_1.commit.op_class_0::FloatSqrt            0      0.00%     75.70% # Class of committed instruction
system.switch_cpus_1.commit.op_class_0::SimdAdd            0      0.00%     75.70% # Class of committed instruction
system.switch_cpus_1.commit.op_class_0::SimdAddAcc            0      0.00%     75.70% # Class of committed instruction
system.switch_cpus_1.commit.op_class_0::SimdAlu            0      0.00%     75.70% # Class of committed instruction
system.switch_cpus_1.commit.op_class_0::SimdCmp            0      0.00%     75.70% # Class of committed instruction
system.switch_cpus_1.commit.op_class_0::SimdCvt            0      0.00%     75.70% # Class of committed instruction
system.switch_cpus_1.commit.op_class_0::SimdMisc            0      0.00%     75.70% # Class of committed instruction
system.switch_cpus_1.commit.op_class_0::SimdMult            0      0.00%     75.70% # Class of committed instruction
system.switch_cpus_1.commit.op_class_0::SimdMultAcc            0      0.00%     75.70% # Class of committed instruction
system.switch_cpus_1.commit.op_class_0::SimdShift            0      0.00%     75.70% # Class of committed instruction
system.switch_cpus_1.commit.op_class_0::SimdShiftAcc            0      0.00%     75.70% # Class of committed instruction
system.switch_cpus_1.commit.op_class_0::SimdDiv            0      0.00%     75.70% # Class of committed instruction
system.switch_cpus_1.commit.op_class_0::SimdSqrt            0      0.00%     75.70% # Class of committed instruction
system.switch_cpus_1.commit.op_class_0::SimdFloatAdd            0      0.00%     75.70% # Class of committed instruction
system.switch_cpus_1.commit.op_class_0::SimdFloatAlu            0      0.00%     75.70% # Class of committed instruction
system.switch_cpus_1.commit.op_class_0::SimdFloatCmp            0      0.00%     75.70% # Class of committed instruction
system.switch_cpus_1.commit.op_class_0::SimdFloatCvt            0      0.00%     75.70% # Class of committed instruction
system.switch_cpus_1.commit.op_class_0::SimdFloatDiv            0      0.00%     75.70% # Class of committed instruction
system.switch_cpus_1.commit.op_class_0::SimdFloatMisc            0      0.00%     75.70% # Class of committed instruction
system.switch_cpus_1.commit.op_class_0::SimdFloatMult            0      0.00%     75.70% # Class of committed instruction
system.switch_cpus_1.commit.op_class_0::SimdFloatMultAcc            0      0.00%     75.70% # Class of committed instruction
system.switch_cpus_1.commit.op_class_0::SimdFloatSqrt            0      0.00%     75.70% # Class of committed instruction
system.switch_cpus_1.commit.op_class_0::SimdReduceAdd            0      0.00%     75.70% # Class of committed instruction
system.switch_cpus_1.commit.op_class_0::SimdReduceAlu            0      0.00%     75.70% # Class of committed instruction
system.switch_cpus_1.commit.op_class_0::SimdReduceCmp            0      0.00%     75.70% # Class of committed instruction
system.switch_cpus_1.commit.op_class_0::SimdFloatReduceAdd            0      0.00%     75.70% # Class of committed instruction
system.switch_cpus_1.commit.op_class_0::SimdFloatReduceCmp            0      0.00%     75.70% # Class of committed instruction
system.switch_cpus_1.commit.op_class_0::SimdAes            0      0.00%     75.70% # Class of committed instruction
system.switch_cpus_1.commit.op_class_0::SimdAesMix            0      0.00%     75.70% # Class of committed instruction
system.switch_cpus_1.commit.op_class_0::SimdSha1Hash            0      0.00%     75.70% # Class of committed instruction
system.switch_cpus_1.commit.op_class_0::SimdSha1Hash2            0      0.00%     75.70% # Class of committed instruction
system.switch_cpus_1.commit.op_class_0::SimdSha256Hash            0      0.00%     75.70% # Class of committed instruction
system.switch_cpus_1.commit.op_class_0::SimdSha256Hash2            0      0.00%     75.70% # Class of committed instruction
system.switch_cpus_1.commit.op_class_0::SimdShaSigma2            0      0.00%     75.70% # Class of committed instruction
system.switch_cpus_1.commit.op_class_0::SimdShaSigma3            0      0.00%     75.70% # Class of committed instruction
system.switch_cpus_1.commit.op_class_0::SimdPredAlu            0      0.00%     75.70% # Class of committed instruction
system.switch_cpus_1.commit.op_class_0::MemRead     79739108     18.91%     94.61% # Class of committed instruction
system.switch_cpus_1.commit.op_class_0::MemWrite     22719260      5.39%    100.00% # Class of committed instruction
system.switch_cpus_1.commit.op_class_0::FloatMemRead            0      0.00%    100.00% # Class of committed instruction
system.switch_cpus_1.commit.op_class_0::FloatMemWrite            0      0.00%    100.00% # Class of committed instruction
system.switch_cpus_1.commit.op_class_0::IprAccess            0      0.00%    100.00% # Class of committed instruction
system.switch_cpus_1.commit.op_class_0::InstPrefetch            0      0.00%    100.00% # Class of committed instruction
system.switch_cpus_1.commit.op_class_0::total    421666921                       # Class of committed instruction
system.switch_cpus_1.commit.refs            102458368                       # Number of memory references committed
system.switch_cpus_1.commit.swp_count               0                       # Number of s/w prefetches committed
system.switch_cpus_1.commit.vec_insts               0                       # Number of committed Vector instructions.
system.switch_cpus_1.committedInsts         250000004                       # Number of Instructions Simulated
system.switch_cpus_1.committedOps           421666921                       # Number of Ops (including micro ops) Simulated
system.switch_cpus_1.cpi                     1.499262                       # CPI: Cycles Per Instruction
system.switch_cpus_1.cpi_total               1.499262                       # CPI: Total CPI of All Threads
system.switch_cpus_1.decode.BlockedCycles    193307583                       # Number of cycles decode is blocked
system.switch_cpus_1.decode.DecodedInsts    872498147                       # Number of instructions handled by decode
system.switch_cpus_1.decode.IdleCycles       50153991                       # Number of cycles decode is idle
system.switch_cpus_1.decode.RunCycles       100004970                       # Number of cycles decode is running
system.switch_cpus_1.decode.SquashCycles      8256478                       # Number of cycles decode is squashing
system.switch_cpus_1.decode.UnblockCycles     23081385                       # Number of cycles decode is unblocking
system.switch_cpus_1.dtb.rdAccesses         115377026                       # TLB accesses on read requests
system.switch_cpus_1.dtb.rdMisses             1249140                       # TLB misses on read requests
system.switch_cpus_1.dtb.wrAccesses          30000517                       # TLB accesses on write requests
system.switch_cpus_1.dtb.wrMisses              362934                       # TLB misses on write requests
system.switch_cpus_1.fetch.Branches          91880034                       # Number of branches that fetch encountered
system.switch_cpus_1.fetch.CacheLines        63613582                       # Number of cache lines fetched
system.switch_cpus_1.fetch.Cycles           297675437                       # Number of cycles fetch has run and was not squashing or blocked
system.switch_cpus_1.fetch.IcacheSquashes      1886310                       # Number of outstanding Icache misses that were squashed
system.switch_cpus_1.fetch.Insts            575692670                       # Number of instructions fetch has processed
system.switch_cpus_1.fetch.MiscStallCycles          287                       # Number of cycles fetch has spent waiting on interrupts, or bad addresses, or out of MSHRs
system.switch_cpus_1.fetch.PendingTrapStallCycles         3724                       # Number of stall cycles due to pending traps
system.switch_cpus_1.fetch.SquashCycles      16512956                       # Number of cycles fetch has spent squashing
system.switch_cpus_1.fetch.branchRate        0.245134                       # Number of branch fetches per cycle
system.switch_cpus_1.fetch.icacheStallCycles     68868492                       # Number of cycles fetch is stalled on an Icache miss
system.switch_cpus_1.fetch.predictedBranches     32081940                       # Number of branches that fetch has predicted taken
system.switch_cpus_1.fetch.rate              1.535937                       # Number of inst fetches per cycle
system.switch_cpus_1.fetch.rateDist::samples    374804418                       # Number of instructions fetched each cycle (Total)
system.switch_cpus_1.fetch.rateDist::mean     2.546290                       # Number of instructions fetched each cycle (Total)
system.switch_cpus_1.fetch.rateDist::stdev     3.415903                       # Number of instructions fetched each cycle (Total)
system.switch_cpus_1.fetch.rateDist::underflows            0      0.00%      0.00% # Number of instructions fetched each cycle (Total)
system.switch_cpus_1.fetch.rateDist::0      220511144     58.83%     58.83% # Number of instructions fetched each cycle (Total)
system.switch_cpus_1.fetch.rateDist::1        8636983      2.30%     61.14% # Number of instructions fetched each cycle (Total)
system.switch_cpus_1.fetch.rateDist::2       12867208      3.43%     64.57% # Number of instructions fetched each cycle (Total)
system.switch_cpus_1.fetch.rateDist::3        9026625      2.41%     66.98% # Number of instructions fetched each cycle (Total)
system.switch_cpus_1.fetch.rateDist::4        8457741      2.26%     69.24% # Number of instructions fetched each cycle (Total)
system.switch_cpus_1.fetch.rateDist::5       14026601      3.74%     72.98% # Number of instructions fetched each cycle (Total)
system.switch_cpus_1.fetch.rateDist::6        6750284      1.80%     74.78% # Number of instructions fetched each cycle (Total)
system.switch_cpus_1.fetch.rateDist::7        7778737      2.08%     76.85% # Number of instructions fetched each cycle (Total)
system.switch_cpus_1.fetch.rateDist::8       86749095     23.15%    100.00% # Number of instructions fetched each cycle (Total)
system.switch_cpus_1.fetch.rateDist::overflows            0      0.00%    100.00% # Number of instructions fetched each cycle (Total)
system.switch_cpus_1.fetch.rateDist::min_value            0                       # Number of instructions fetched each cycle (Total)
system.switch_cpus_1.fetch.rateDist::max_value            8                       # Number of instructions fetched each cycle (Total)
system.switch_cpus_1.fetch.rateDist::total    374804418                       # Number of instructions fetched each cycle (Total)
system.switch_cpus_1.fp_regfile_reads          120766                       # number of floating regfile reads
system.switch_cpus_1.fp_regfile_writes          78114                       # number of floating regfile writes
system.switch_cpus_1.idleCycles                 10976                       # Total number of cycles that the CPU has spent unscheduled due to idling
system.switch_cpus_1.iew.branchMispredicts      9891321                       # Number of branch mispredicts detected at execute
system.switch_cpus_1.iew.exec_branches       52075714                       # Number of branches executed
system.switch_cpus_1.iew.exec_nop                   0                       # number of nop insts executed
system.switch_cpus_1.iew.exec_rate           1.668146                       # Inst execution rate
system.switch_cpus_1.iew.exec_refs          148667826                       # number of memory reference insts executed
system.switch_cpus_1.iew.exec_stores         29997520                       # Number of stores executed
system.switch_cpus_1.iew.exec_swp                   0                       # number of swp insts executed
system.switch_cpus_1.iew.iewBlockCycles      58814400                       # Number of cycles IEW is blocking
system.switch_cpus_1.iew.iewDispLoadInsts    141970926                       # Number of dispatched load instructions
system.switch_cpus_1.iew.iewDispNonSpecInsts            0                       # Number of dispatched non-speculative instructions
system.switch_cpus_1.iew.iewDispSquashedInsts       703750                       # Number of squashed instructions skipped by dispatch
system.switch_cpus_1.iew.iewDispStoreInsts     44270964                       # Number of dispatched store instructions
system.switch_cpus_1.iew.iewDispatchedInsts    752787725                       # Number of instructions dispatched to IQ
system.switch_cpus_1.iew.iewExecLoadInsts    118670306                       # Number of load instructions executed
system.switch_cpus_1.iew.iewExecSquashedInsts     20189307                       # Number of squashed instructions skipped in execute
system.switch_cpus_1.iew.iewExecutedInsts    625246854                       # Number of executed instructions
system.switch_cpus_1.iew.iewIQFullEvents       622582                       # Number of times the IQ has become full, causing a stall
system.switch_cpus_1.iew.iewIdleCycles              0                       # Number of cycles IEW is idle
system.switch_cpus_1.iew.iewLSQFullEvents     15908314                       # Number of times the LSQ has become full, causing a stall
system.switch_cpus_1.iew.iewSquashCycles      8256478                       # Number of cycles IEW is squashing
system.switch_cpus_1.iew.iewUnblockCycles     17101275                       # Number of cycles IEW is unblocking
system.switch_cpus_1.iew.lsq.thread0.blockedLoads            0                       # Number of blocked loads due to partial load-store forwarding
system.switch_cpus_1.iew.lsq.thread0.cacheBlocked      1020100                       # Number of times an access to memory failed due to the cache being blocked
system.switch_cpus_1.iew.lsq.thread0.forwLoads      8243579                       # Number of loads that had data forwarded from stores
system.switch_cpus_1.iew.lsq.thread0.ignoredResponses        43450                       # Number of memory responses ignored because the instruction is squashed
system.switch_cpus_1.iew.lsq.thread0.invAddrLoads            0                       # Number of loads ignored due to an invalid address
system.switch_cpus_1.iew.lsq.thread0.invAddrSwpfs            0                       # Number of software prefetches ignored due to an invalid address
system.switch_cpus_1.iew.lsq.thread0.memOrderViolation        28853                       # Number of memory ordering violations
system.switch_cpus_1.iew.lsq.thread0.rescheduledLoads        53710                       # Number of loads that were rescheduled
system.switch_cpus_1.iew.lsq.thread0.squashedLoads     62231814                       # Number of loads squashed
system.switch_cpus_1.iew.lsq.thread0.squashedStores     21551702                       # Number of stores squashed
system.switch_cpus_1.iew.memOrderViolationEvents        28853                       # Number of memory order violations
system.switch_cpus_1.iew.predictedNotTakenIncorrect      8844135                       # Number of branches that were predicted not taken incorrectly
system.switch_cpus_1.iew.predictedTakenIncorrect      1047186                       # Number of branches that were predicted taken incorrectly
system.switch_cpus_1.iew.wb_consumers       704159437                       # num instructions consuming a value
system.switch_cpus_1.iew.wb_count           608762336                       # cumulative count of insts written-back
system.switch_cpus_1.iew.wb_fanout           0.666312                       # average fanout of values written-back
system.switch_cpus_1.iew.wb_producers       469189904                       # num instructions producing a value
system.switch_cpus_1.iew.wb_rate             1.624166                       # insts written-back per cycle
system.switch_cpus_1.iew.wb_sent            612786439                       # cumulative count of insts sent to commit
system.switch_cpus_1.int_regfile_reads      975796169                       # number of integer regfile reads
system.switch_cpus_1.int_regfile_writes     528449232                       # number of integer regfile writes
system.switch_cpus_1.ipc                     0.666995                       # IPC: Instructions Per Cycle
system.switch_cpus_1.ipc_total               0.666995                       # IPC: Total IPC of All Threads
system.switch_cpus_1.iq.FU_type_0::No_OpClass      1625559      0.25%      0.25% # Type of FU issued
system.switch_cpus_1.iq.FU_type_0::IntAlu    487428762     75.52%     75.77% # Type of FU issued
system.switch_cpus_1.iq.FU_type_0::IntMult           84      0.00%     75.77% # Type of FU issued
system.switch_cpus_1.iq.FU_type_0::IntDiv          138      0.00%     75.77% # Type of FU issued
system.switch_cpus_1.iq.FU_type_0::FloatAdd            0      0.00%     75.77% # Type of FU issued
system.switch_cpus_1.iq.FU_type_0::FloatCmp            0      0.00%     75.77% # Type of FU issued
system.switch_cpus_1.iq.FU_type_0::FloatCvt         5752      0.00%     75.77% # Type of FU issued
system.switch_cpus_1.iq.FU_type_0::FloatMult            0      0.00%     75.77% # Type of FU issued
system.switch_cpus_1.iq.FU_type_0::FloatMultAcc            0      0.00%     75.77% # Type of FU issued
system.switch_cpus_1.iq.FU_type_0::FloatDiv            0      0.00%     75.77% # Type of FU issued
system.switch_cpus_1.iq.FU_type_0::FloatMisc            0      0.00%     75.77% # Type of FU issued
system.switch_cpus_1.iq.FU_type_0::FloatSqrt            0      0.00%     75.77% # Type of FU issued
system.switch_cpus_1.iq.FU_type_0::SimdAdd            0      0.00%     75.77% # Type of FU issued
system.switch_cpus_1.iq.FU_type_0::SimdAddAcc            0      0.00%     75.77% # Type of FU issued
system.switch_cpus_1.iq.FU_type_0::SimdAlu            0      0.00%     75.77% # Type of FU issued
system.switch_cpus_1.iq.FU_type_0::SimdCmp            0      0.00%     75.77% # Type of FU issued
system.switch_cpus_1.iq.FU_type_0::SimdCvt            0      0.00%     75.77% # Type of FU issued
system.switch_cpus_1.iq.FU_type_0::SimdMisc       104768      0.02%     75.79% # Type of FU issued
system.switch_cpus_1.iq.FU_type_0::SimdMult            0      0.00%     75.79% # Type of FU issued
system.switch_cpus_1.iq.FU_type_0::SimdMultAcc            0      0.00%     75.79% # Type of FU issued
system.switch_cpus_1.iq.FU_type_0::SimdShift            0      0.00%     75.79% # Type of FU issued
system.switch_cpus_1.iq.FU_type_0::SimdShiftAcc            0      0.00%     75.79% # Type of FU issued
system.switch_cpus_1.iq.FU_type_0::SimdDiv            0      0.00%     75.79% # Type of FU issued
system.switch_cpus_1.iq.FU_type_0::SimdSqrt            0      0.00%     75.79% # Type of FU issued
system.switch_cpus_1.iq.FU_type_0::SimdFloatAdd            0      0.00%     75.79% # Type of FU issued
system.switch_cpus_1.iq.FU_type_0::SimdFloatAlu            0      0.00%     75.79% # Type of FU issued
system.switch_cpus_1.iq.FU_type_0::SimdFloatCmp            0      0.00%     75.79% # Type of FU issued
system.switch_cpus_1.iq.FU_type_0::SimdFloatCvt        39788      0.01%     75.79% # Type of FU issued
system.switch_cpus_1.iq.FU_type_0::SimdFloatDiv            0      0.00%     75.79% # Type of FU issued
system.switch_cpus_1.iq.FU_type_0::SimdFloatMisc            0      0.00%     75.79% # Type of FU issued
system.switch_cpus_1.iq.FU_type_0::SimdFloatMult            0      0.00%     75.79% # Type of FU issued
system.switch_cpus_1.iq.FU_type_0::SimdFloatMultAcc            0      0.00%     75.79% # Type of FU issued
system.switch_cpus_1.iq.FU_type_0::SimdFloatSqrt            0      0.00%     75.79% # Type of FU issued
system.switch_cpus_1.iq.FU_type_0::SimdReduceAdd            0      0.00%     75.79% # Type of FU issued
system.switch_cpus_1.iq.FU_type_0::SimdReduceAlu            0      0.00%     75.79% # Type of FU issued
system.switch_cpus_1.iq.FU_type_0::SimdReduceCmp            0      0.00%     75.79% # Type of FU issued
system.switch_cpus_1.iq.FU_type_0::SimdFloatReduceAdd            0      0.00%     75.79% # Type of FU issued
system.switch_cpus_1.iq.FU_type_0::SimdFloatReduceCmp            0      0.00%     75.79% # Type of FU issued
system.switch_cpus_1.iq.FU_type_0::SimdAes            0      0.00%     75.79% # Type of FU issued
system.switch_cpus_1.iq.FU_type_0::SimdAesMix            0      0.00%     75.79% # Type of FU issued
system.switch_cpus_1.iq.FU_type_0::SimdSha1Hash            0      0.00%     75.79% # Type of FU issued
system.switch_cpus_1.iq.FU_type_0::SimdSha1Hash2            0      0.00%     75.79% # Type of FU issued
system.switch_cpus_1.iq.FU_type_0::SimdSha256Hash            0      0.00%     75.79% # Type of FU issued
system.switch_cpus_1.iq.FU_type_0::SimdSha256Hash2            0      0.00%     75.79% # Type of FU issued
system.switch_cpus_1.iq.FU_type_0::SimdShaSigma2            0      0.00%     75.79% # Type of FU issued
system.switch_cpus_1.iq.FU_type_0::SimdShaSigma3            0      0.00%     75.79% # Type of FU issued
system.switch_cpus_1.iq.FU_type_0::SimdPredAlu            0      0.00%     75.79% # Type of FU issued
system.switch_cpus_1.iq.FU_type_0::MemRead    124601145     19.30%     95.10% # Type of FU issued
system.switch_cpus_1.iq.FU_type_0::MemWrite     31630166      4.90%    100.00% # Type of FU issued
system.switch_cpus_1.iq.FU_type_0::FloatMemRead            0      0.00%    100.00% # Type of FU issued
system.switch_cpus_1.iq.FU_type_0::FloatMemWrite            0      0.00%    100.00% # Type of FU issued
system.switch_cpus_1.iq.FU_type_0::IprAccess            0      0.00%    100.00% # Type of FU issued
system.switch_cpus_1.iq.FU_type_0::InstPrefetch            0      0.00%    100.00% # Type of FU issued
system.switch_cpus_1.iq.FU_type_0::total    645436162                       # Type of FU issued
system.switch_cpus_1.iq.fp_alu_accesses        150316                       # Number of floating point alu accesses
system.switch_cpus_1.iq.fp_inst_queue_reads       304261                       # Number of floating instruction queue reads
system.switch_cpus_1.iq.fp_inst_queue_wakeup_accesses        83462                       # Number of floating instruction queue wakeup accesses
system.switch_cpus_1.iq.fp_inst_queue_writes       804826                       # Number of floating instruction queue writes
system.switch_cpus_1.iq.fu_busy_cnt           6431944                       # FU busy when requested
system.switch_cpus_1.iq.fu_busy_rate         0.009965                       # FU busy rate (busy events/executed inst)
system.switch_cpus_1.iq.fu_full::No_OpClass            0      0.00%      0.00% # attempts to use FU when none available
system.switch_cpus_1.iq.fu_full::IntAlu       4553912     70.80%     70.80% # attempts to use FU when none available
system.switch_cpus_1.iq.fu_full::IntMult            0      0.00%     70.80% # attempts to use FU when none available
system.switch_cpus_1.iq.fu_full::IntDiv             0      0.00%     70.80% # attempts to use FU when none available
system.switch_cpus_1.iq.fu_full::FloatAdd            0      0.00%     70.80% # attempts to use FU when none available
system.switch_cpus_1.iq.fu_full::FloatCmp            0      0.00%     70.80% # attempts to use FU when none available
system.switch_cpus_1.iq.fu_full::FloatCvt            8      0.00%     70.80% # attempts to use FU when none available
system.switch_cpus_1.iq.fu_full::FloatMult            0      0.00%     70.80% # attempts to use FU when none available
system.switch_cpus_1.iq.fu_full::FloatMultAcc            0      0.00%     70.80% # attempts to use FU when none available
system.switch_cpus_1.iq.fu_full::FloatDiv            0      0.00%     70.80% # attempts to use FU when none available
system.switch_cpus_1.iq.fu_full::FloatMisc            0      0.00%     70.80% # attempts to use FU when none available
system.switch_cpus_1.iq.fu_full::FloatSqrt            0      0.00%     70.80% # attempts to use FU when none available
system.switch_cpus_1.iq.fu_full::SimdAdd            0      0.00%     70.80% # attempts to use FU when none available
system.switch_cpus_1.iq.fu_full::SimdAddAcc            0      0.00%     70.80% # attempts to use FU when none available
system.switch_cpus_1.iq.fu_full::SimdAlu            0      0.00%     70.80% # attempts to use FU when none available
system.switch_cpus_1.iq.fu_full::SimdCmp            0      0.00%     70.80% # attempts to use FU when none available
system.switch_cpus_1.iq.fu_full::SimdCvt            0      0.00%     70.80% # attempts to use FU when none available
system.switch_cpus_1.iq.fu_full::SimdMisc            0      0.00%     70.80% # attempts to use FU when none available
system.switch_cpus_1.iq.fu_full::SimdMult            0      0.00%     70.80% # attempts to use FU when none available
system.switch_cpus_1.iq.fu_full::SimdMultAcc            0      0.00%     70.80% # attempts to use FU when none available
system.switch_cpus_1.iq.fu_full::SimdShift            0      0.00%     70.80% # attempts to use FU when none available
system.switch_cpus_1.iq.fu_full::SimdShiftAcc            0      0.00%     70.80% # attempts to use FU when none available
system.switch_cpus_1.iq.fu_full::SimdDiv            0      0.00%     70.80% # attempts to use FU when none available
system.switch_cpus_1.iq.fu_full::SimdSqrt            0      0.00%     70.80% # attempts to use FU when none available
system.switch_cpus_1.iq.fu_full::SimdFloatAdd            0      0.00%     70.80% # attempts to use FU when none available
system.switch_cpus_1.iq.fu_full::SimdFloatAlu            0      0.00%     70.80% # attempts to use FU when none available
system.switch_cpus_1.iq.fu_full::SimdFloatCmp            0      0.00%     70.80% # attempts to use FU when none available
system.switch_cpus_1.iq.fu_full::SimdFloatCvt            0      0.00%     70.80% # attempts to use FU when none available
system.switch_cpus_1.iq.fu_full::SimdFloatDiv            0      0.00%     70.80% # attempts to use FU when none available
system.switch_cpus_1.iq.fu_full::SimdFloatMisc            0      0.00%     70.80% # attempts to use FU when none available
system.switch_cpus_1.iq.fu_full::SimdFloatMult            0      0.00%     70.80% # attempts to use FU when none available
system.switch_cpus_1.iq.fu_full::SimdFloatMultAcc            0      0.00%     70.80% # attempts to use FU when none available
system.switch_cpus_1.iq.fu_full::SimdFloatSqrt            0      0.00%     70.80% # attempts to use FU when none available
system.switch_cpus_1.iq.fu_full::SimdReduceAdd            0      0.00%     70.80% # attempts to use FU when none available
system.switch_cpus_1.iq.fu_full::SimdReduceAlu            0      0.00%     70.80% # attempts to use FU when none available
system.switch_cpus_1.iq.fu_full::SimdReduceCmp            0      0.00%     70.80% # attempts to use FU when none available
system.switch_cpus_1.iq.fu_full::SimdFloatReduceAdd            0      0.00%     70.80% # attempts to use FU when none available
system.switch_cpus_1.iq.fu_full::SimdFloatReduceCmp            0      0.00%     70.80% # attempts to use FU when none available
system.switch_cpus_1.iq.fu_full::SimdAes            0      0.00%     70.80% # attempts to use FU when none available
system.switch_cpus_1.iq.fu_full::SimdAesMix            0      0.00%     70.80% # attempts to use FU when none available
system.switch_cpus_1.iq.fu_full::SimdSha1Hash            0      0.00%     70.80% # attempts to use FU when none available
system.switch_cpus_1.iq.fu_full::SimdSha1Hash2            0      0.00%     70.80% # attempts to use FU when none available
system.switch_cpus_1.iq.fu_full::SimdSha256Hash            0      0.00%     70.80% # attempts to use FU when none available
system.switch_cpus_1.iq.fu_full::SimdSha256Hash2            0      0.00%     70.80% # attempts to use FU when none available
system.switch_cpus_1.iq.fu_full::SimdShaSigma2            0      0.00%     70.80% # attempts to use FU when none available
system.switch_cpus_1.iq.fu_full::SimdShaSigma3            0      0.00%     70.80% # attempts to use FU when none available
system.switch_cpus_1.iq.fu_full::SimdPredAlu            0      0.00%     70.80% # attempts to use FU when none available
system.switch_cpus_1.iq.fu_full::MemRead      1846121     28.70%     99.50% # attempts to use FU when none available
system.switch_cpus_1.iq.fu_full::MemWrite        31903      0.50%    100.00% # attempts to use FU when none available
system.switch_cpus_1.iq.fu_full::FloatMemRead            0      0.00%    100.00% # attempts to use FU when none available
system.switch_cpus_1.iq.fu_full::FloatMemWrite            0      0.00%    100.00% # attempts to use FU when none available
system.switch_cpus_1.iq.fu_full::IprAccess            0      0.00%    100.00% # attempts to use FU when none available
system.switch_cpus_1.iq.fu_full::InstPrefetch            0      0.00%    100.00% # attempts to use FU when none available
system.switch_cpus_1.iq.int_alu_accesses    650092231                       # Number of integer alu accesses
system.switch_cpus_1.iq.int_inst_queue_reads   1673316253                       # Number of integer instruction queue reads
system.switch_cpus_1.iq.int_inst_queue_wakeup_accesses    608678874                       # Number of integer instruction queue wakeup accesses
system.switch_cpus_1.iq.int_inst_queue_writes   1083130690                       # Number of integer instruction queue writes
system.switch_cpus_1.iq.iqInstsAdded        752787725                       # Number of instructions added to the IQ (excludes non-spec)
system.switch_cpus_1.iq.iqInstsIssued       645436162                       # Number of instructions issued
system.switch_cpus_1.iq.iqSquashedInstsExamined    331120785                       # Number of squashed instructions iterated over during squash; mainly for profiling
system.switch_cpus_1.iq.iqSquashedInstsIssued      1511829                       # Number of squashed instructions issued
system.switch_cpus_1.iq.iqSquashedOperandsExamined    477900506                       # Number of squashed operands that are examined and possibly removed from graph
system.switch_cpus_1.iq.issued_per_cycle::samples    374804418                       # Number of insts issued each cycle
system.switch_cpus_1.iq.issued_per_cycle::mean     1.722061                       # Number of insts issued each cycle
system.switch_cpus_1.iq.issued_per_cycle::stdev     2.168829                       # Number of insts issued each cycle
system.switch_cpus_1.iq.issued_per_cycle::underflows            0      0.00%      0.00% # Number of insts issued each cycle
system.switch_cpus_1.iq.issued_per_cycle::0    178926318     47.74%     47.74% # Number of insts issued each cycle
system.switch_cpus_1.iq.issued_per_cycle::1     45402640     12.11%     59.85% # Number of insts issued each cycle
system.switch_cpus_1.iq.issued_per_cycle::2     38770295     10.34%     70.20% # Number of insts issued each cycle
system.switch_cpus_1.iq.issued_per_cycle::3     29586494      7.89%     78.09% # Number of insts issued each cycle
system.switch_cpus_1.iq.issued_per_cycle::4     27233846      7.27%     85.36% # Number of insts issued each cycle
system.switch_cpus_1.iq.issued_per_cycle::5     22931886      6.12%     91.47% # Number of insts issued each cycle
system.switch_cpus_1.iq.issued_per_cycle::6     17988851      4.80%     96.27% # Number of insts issued each cycle
system.switch_cpus_1.iq.issued_per_cycle::7      9507174      2.54%     98.81% # Number of insts issued each cycle
system.switch_cpus_1.iq.issued_per_cycle::8      4456914      1.19%    100.00% # Number of insts issued each cycle
system.switch_cpus_1.iq.issued_per_cycle::overflows            0      0.00%    100.00% # Number of insts issued each cycle
system.switch_cpus_1.iq.issued_per_cycle::min_value            0                       # Number of insts issued each cycle
system.switch_cpus_1.iq.issued_per_cycle::max_value            8                       # Number of insts issued each cycle
system.switch_cpus_1.iq.issued_per_cycle::total    374804418                       # Number of insts issued each cycle
system.switch_cpus_1.iq.rate                 1.722011                       # Inst issue rate
system.switch_cpus_1.iq.vec_alu_accesses            0                       # Number of vector alu accesses
system.switch_cpus_1.iq.vec_inst_queue_reads            0                       # Number of vector instruction queue reads
system.switch_cpus_1.iq.vec_inst_queue_wakeup_accesses            0                       # Number of vector instruction queue wakeup accesses
system.switch_cpus_1.iq.vec_inst_queue_writes            0                       # Number of vector instruction queue writes
system.switch_cpus_1.itb.rdAccesses                 0                       # TLB accesses on read requests
system.switch_cpus_1.itb.rdMisses                   0                       # TLB misses on read requests
system.switch_cpus_1.itb.wrAccesses          63614053                       # TLB accesses on write requests
system.switch_cpus_1.itb.wrMisses                 484                       # TLB misses on write requests
system.switch_cpus_1.memDep0.conflictingLoads     20905519                       # Number of conflicting loads.
system.switch_cpus_1.memDep0.conflictingStores     13675199                       # Number of conflicting stores.
system.switch_cpus_1.memDep0.insertedLoads    141970926                       # Number of loads inserted to the mem dependence unit.
system.switch_cpus_1.memDep0.insertedStores     44270964                       # Number of stores inserted to the mem dependence unit.
system.switch_cpus_1.misc_regfile_reads     267702081                       # number of misc regfile reads
system.switch_cpus_1.numCycles              374815394                       # number of cpu cycles simulated
system.switch_cpus_1.numWorkItemsCompleted            0                       # number of work items this cpu completed
system.switch_cpus_1.numWorkItemsStarted            0                       # number of work items this cpu started
system.switch_cpus_1.rename.BlockCycles     117146272                       # Number of cycles rename is blocking
system.switch_cpus_1.rename.CommittedMaps    530265411                       # Number of HB maps that are committed
system.switch_cpus_1.rename.IQFullEvents     32665917                       # Number of times rename has blocked due to IQ full
system.switch_cpus_1.rename.IdleCycles       62074328                       # Number of cycles rename is idle
system.switch_cpus_1.rename.LQFullEvents     10705025                       # Number of times rename has blocked due to LQ full
system.switch_cpus_1.rename.ROBFullEvents      4119146                       # Number of times rename has blocked due to ROB full
system.switch_cpus_1.rename.RenameLookups   2138368709                       # Number of register rename lookups that rename has made
system.switch_cpus_1.rename.RenamedInsts    829895133                       # Number of instructions processed by rename
system.switch_cpus_1.rename.RenamedOperands   1005062640                       # Number of destination operands rename has renamed
system.switch_cpus_1.rename.RunCycles       109055699                       # Number of cycles rename is running
system.switch_cpus_1.rename.SQFullEvents     27576522                       # Number of times rename has blocked due to SQ full
system.switch_cpus_1.rename.SquashCycles      8256478                       # Number of cycles rename is squashing
system.switch_cpus_1.rename.UnblockCycles     78271631                       # Number of cycles rename is unblocking
system.switch_cpus_1.rename.UndoneMaps      474797192                       # Number of HB maps that are undone due to squashing
system.switch_cpus_1.rename.fp_rename_lookups      2243533                       # Number of floating rename lookups
system.switch_cpus_1.rename.int_rename_lookups   1376518274                       # Number of integer rename lookups
system.switch_cpus_1.rename.serializeStallCycles            0                       # count of cycles rename stalled for serializing inst
system.switch_cpus_1.rename.serializingInsts            0                       # count of serializing insts renamed
system.switch_cpus_1.rename.skidInsts       107658099                       # count of insts added to the skid buffer
system.switch_cpus_1.rename.tempSerializingInsts            0                       # count of temporary serializing insts renamed
system.switch_cpus_1.rob.rob_reads         1055750856                       # The number of ROB reads
system.switch_cpus_1.rob.rob_writes        1555383323                       # The number of ROB writes
system.switch_cpus_1.timesIdled                    87                       # Number of times that the entire CPU went into an idle state and unscheduled itself
system.tol2bus.snoop_filter.hit_multi_requests            0                       # Number of requests hitting in the snoop filter with multiple (>1) holders of the requested data.
system.tol2bus.snoop_filter.hit_multi_snoops            0                       # Number of snoops hitting in the snoop filter with multiple (>1) holders of the requested data.
system.tol2bus.snoop_filter.hit_single_requests      4651065                       # Number of requests hitting in the snoop filter with a single holder of the requested data.
system.tol2bus.snoop_filter.hit_single_snoops          656                       # Number of snoops hitting in the snoop filter with a single holder of the requested data.
system.tol2bus.snoop_filter.tot_requests      9174245                       # Total number of requests made to the snoop filter.
system.tol2bus.snoop_filter.tot_snoops            656                       # Total number of snoops made to the snoop filter.
system.tol3bus.snoop_filter.hit_multi_requests            0                       # Number of requests hitting in the snoop filter with multiple (>1) holders of the requested data.
system.tol3bus.snoop_filter.hit_multi_snoops            0                       # Number of snoops hitting in the snoop filter with multiple (>1) holders of the requested data.
system.tol3bus.snoop_filter.hit_single_requests      4011121                       # Number of requests hitting in the snoop filter with a single holder of the requested data.
system.tol3bus.snoop_filter.hit_single_snoops         8335                       # Number of snoops hitting in the snoop filter with a single holder of the requested data.
system.tol3bus.snoop_filter.tot_requests      7993106                       # Total number of requests made to the snoop filter.
system.tol3bus.snoop_filter.tot_snoops           8335                       # Total number of snoops made to the snoop filter.
system.membus.trans_dist::ReadResp              94448                       # Transaction distribution
system.membus.trans_dist::WritebackDirty        94093                       # Transaction distribution
system.membus.trans_dist::CleanEvict            37888                       # Transaction distribution
system.membus.trans_dist::ReadExReq             37425                       # Transaction distribution
system.membus.trans_dist::ReadExResp            37425                       # Transaction distribution
system.membus.trans_dist::ReadSharedReq         94448                       # Transaction distribution
system.membus.pkt_count_system.l3.mem_side::system.mem_ctrls.port       395727                       # Packet count per connected master and slave (bytes)
system.membus.pkt_count_system.l3.mem_side::total       395727                       # Packet count per connected master and slave (bytes)
system.membus.pkt_count::total                 395727                       # Packet count per connected master and slave (bytes)
system.membus.pkt_size_system.l3.mem_side::system.mem_ctrls.port     14461824                       # Cumulative packet size per connected master and slave (bytes)
system.membus.pkt_size_system.l3.mem_side::total     14461824                       # Cumulative packet size per connected master and slave (bytes)
system.membus.pkt_size::total                14461824                       # Cumulative packet size per connected master and slave (bytes)
system.membus.snoops                                0                       # Total snoops (count)
system.membus.snoopTraffic                          0                       # Total snoop traffic (bytes)
system.membus.snoop_fanout::samples            131873                       # Request fanout histogram
system.membus.snoop_fanout::mean                    0                       # Request fanout histogram
system.membus.snoop_fanout::stdev                   0                       # Request fanout histogram
system.membus.snoop_fanout::underflows              0      0.00%      0.00% # Request fanout histogram
system.membus.snoop_fanout::0                  131873    100.00%    100.00% # Request fanout histogram
system.membus.snoop_fanout::1                       0      0.00%    100.00% # Request fanout histogram
system.membus.snoop_fanout::overflows               0      0.00%    100.00% # Request fanout histogram
system.membus.snoop_fanout::min_value               0                       # Request fanout histogram
system.membus.snoop_fanout::max_value               0                       # Request fanout histogram
system.membus.snoop_fanout::total              131873                       # Request fanout histogram
system.membus.reqLayer2.occupancy           678715000                       # Layer occupancy (ticks)
system.membus.reqLayer2.utilization               0.4                       # Layer utilization (%)
system.membus.respLayer1.occupancy          699568000                       # Layer occupancy (ticks)
system.membus.respLayer1.utilization              0.4                       # Layer utilization (%)
system.membus.power_state.pwrStateResidencyTicks::UNDEFINED 1321062444500                       # Cumulative time (in ticks) in various power states
system.switch_cpus_1.dtb.walker.power_state.pwrStateResidencyTicks::UNDEFINED 1321062444500                       # Cumulative time (in ticks) in various power states
system.switch_cpus_1.itb.walker.power_state.pwrStateResidencyTicks::UNDEFINED 1321062444500                       # Cumulative time (in ticks) in various power states
system.switch_cpus_1.power_state.pwrStateResidencyTicks::OFF 1321062444500                       # Cumulative time (in ticks) in various power states
system.switch_cpus.dtb.walker.power_state.pwrStateResidencyTicks::UNDEFINED 1321062444500                       # Cumulative time (in ticks) in various power states
system.switch_cpus.itb.walker.power_state.pwrStateResidencyTicks::UNDEFINED 1321062444500                       # Cumulative time (in ticks) in various power states
system.switch_cpus.power_state.numTransitions            1                       # Number of power state transitions
system.switch_cpus.power_state.pwrStateResidencyTicks::OFF 1321062444500                       # Cumulative time (in ticks) in various power states
system.tol2bus.trans_dist::ReadResp           3703683                       # Transaction distribution
system.tol2bus.trans_dist::WritebackDirty      1573940                       # Transaction distribution
system.tol2bus.trans_dist::WritebackClean          176                       # Transaction distribution
system.tol2bus.trans_dist::CleanEvict         3584235                       # Transaction distribution
system.tol2bus.trans_dist::UpgradeReq          127885                       # Transaction distribution
system.tol2bus.trans_dist::UpgradeResp         127885                       # Transaction distribution
system.tol2bus.trans_dist::ReadExReq           819497                       # Transaction distribution
system.tol2bus.trans_dist::ReadExResp          819497                       # Transaction distribution
system.tol2bus.trans_dist::ReadCleanReq       3703683                       # Transaction distribution
system.tol2bus.pkt_count_system.cpu.icache.mem_side::system.l2.cpu_side          528                       # Packet count per connected master and slave (bytes)
system.tol2bus.pkt_count_system.cpu.dcache.mem_side::system.l2.cpu_side     13824782                       # Packet count per connected master and slave (bytes)
system.tol2bus.pkt_count::total              13825310                       # Packet count per connected master and slave (bytes)
system.tol2bus.pkt_size_system.cpu.icache.mem_side::system.l2.cpu_side        22528                       # Cumulative packet size per connected master and slave (bytes)
system.tol2bus.pkt_size_system.cpu.dcache.mem_side::system.l2.cpu_side    350096320                       # Cumulative packet size per connected master and slave (bytes)
system.tol2bus.pkt_size::total              350118848                       # Cumulative packet size per connected master and slave (bytes)
system.tol2bus.snoops                          635171                       # Total snoops (count)
system.tol2bus.snoopTraffic                  40108096                       # Total snoop traffic (bytes)
system.tol2bus.snoop_fanout::samples          5286236                       # Request fanout histogram
system.tol2bus.snoop_fanout::mean            0.000124                       # Request fanout histogram
system.tol2bus.snoop_fanout::stdev           0.011139                       # Request fanout histogram
system.tol2bus.snoop_fanout::underflows             0      0.00%      0.00% # Request fanout histogram
system.tol2bus.snoop_fanout::0                5285580     99.99%     99.99% # Request fanout histogram
system.tol2bus.snoop_fanout::1                    656      0.01%    100.00% # Request fanout histogram
system.tol2bus.snoop_fanout::2                      0      0.00%    100.00% # Request fanout histogram
system.tol2bus.snoop_fanout::3                      0      0.00%    100.00% # Request fanout histogram
system.tol2bus.snoop_fanout::4                      0      0.00%    100.00% # Request fanout histogram
system.tol2bus.snoop_fanout::overflows              0      0.00%    100.00% # Request fanout histogram
system.tol2bus.snoop_fanout::min_value              0                       # Request fanout histogram
system.tol2bus.snoop_fanout::max_value              1                       # Request fanout histogram
system.tol2bus.snoop_fanout::total            5286236                       # Request fanout histogram
system.tol2bus.reqLayer0.occupancy         5534549500                       # Layer occupancy (ticks)
system.tol2bus.reqLayer0.utilization              3.0                       # Layer utilization (%)
system.tol2bus.respLayer1.occupancy        6848448500                       # Layer occupancy (ticks)
system.tol2bus.respLayer1.utilization             3.7                       # Layer utilization (%)
system.tol2bus.respLayer0.occupancy            264000                       # Layer occupancy (ticks)
system.tol2bus.respLayer0.utilization             0.0                       # Layer utilization (%)
system.tol2bus.power_state.pwrStateResidencyTicks::UNDEFINED 1321062444500                       # Cumulative time (in ticks) in various power states
system.voltage_domain.voltage                       1                       # Voltage in Volts
system.clk_domain.clock                          1000                       # Clock period in ticks
system.l2.demand_hits::.switch_cpus_1.inst           15                       # number of demand (read+write) hits
system.l2.demand_hits::.switch_cpus_1.data       541180                       # number of demand (read+write) hits
system.l2.demand_hits::total                   541195                       # number of demand (read+write) hits
system.l2.overall_hits::.switch_cpus_1.inst           15                       # number of overall hits
system.l2.overall_hits::.switch_cpus_1.data       541180                       # number of overall hits
system.l2.overall_hits::total                  541195                       # number of overall hits
system.l2.demand_misses::.switch_cpus_1.inst          161                       # number of demand (read+write) misses
system.l2.demand_misses::.switch_cpus_1.data      3981824                       # number of demand (read+write) misses
system.l2.demand_misses::total                3981985                       # number of demand (read+write) misses
system.l2.overall_misses::.switch_cpus_1.inst          161                       # number of overall misses
system.l2.overall_misses::.switch_cpus_1.data      3981824                       # number of overall misses
system.l2.overall_misses::total               3981985                       # number of overall misses
system.l2.demand_miss_latency::.switch_cpus_1.inst     15145000                       # number of demand (read+write) miss cycles
system.l2.demand_miss_latency::.switch_cpus_1.data 122844687000                       # number of demand (read+write) miss cycles
system.l2.demand_miss_latency::total     122859832000                       # number of demand (read+write) miss cycles
system.l2.overall_miss_latency::.switch_cpus_1.inst     15145000                       # number of overall miss cycles
system.l2.overall_miss_latency::.switch_cpus_1.data 122844687000                       # number of overall miss cycles
system.l2.overall_miss_latency::total    122859832000                       # number of overall miss cycles
system.l2.demand_accesses::.switch_cpus_1.inst          176                       # number of demand (read+write) accesses
system.l2.demand_accesses::.switch_cpus_1.data      4523004                       # number of demand (read+write) accesses
system.l2.demand_accesses::total              4523180                       # number of demand (read+write) accesses
system.l2.overall_accesses::.switch_cpus_1.inst          176                       # number of overall (read+write) accesses
system.l2.overall_accesses::.switch_cpus_1.data      4523004                       # number of overall (read+write) accesses
system.l2.overall_accesses::total             4523180                       # number of overall (read+write) accesses
system.l2.demand_miss_rate::.switch_cpus_1.inst     0.914773                       # miss rate for demand accesses
system.l2.demand_miss_rate::.switch_cpus_1.data     0.880349                       # miss rate for demand accesses
system.l2.demand_miss_rate::total            0.880351                       # miss rate for demand accesses
system.l2.overall_miss_rate::.switch_cpus_1.inst     0.914773                       # miss rate for overall accesses
system.l2.overall_miss_rate::.switch_cpus_1.data     0.880349                       # miss rate for overall accesses
system.l2.overall_miss_rate::total           0.880351                       # miss rate for overall accesses
system.l2.demand_avg_miss_latency::.switch_cpus_1.inst 94068.322981                       # average overall miss latency
system.l2.demand_avg_miss_latency::.switch_cpus_1.data 30851.360331                       # average overall miss latency
[...]
system.cpu.dcache.demand_miss_latency::.switch_cpus_1.data 231209182476                       # number of demand (read+write) miss cycles
system.cpu.dcache.demand_miss_latency::total 250346765476                       # number of demand (read+write) miss cycles
system.cpu.dcache.overall_miss_latency::.switch_cpus.data  19137583000                       # number of overall miss cycles
system.cpu.dcache.overall_miss_latency::.switch_cpus_1.data 231209182476                       # number of overall miss cycles
system.cpu.dcache.overall_miss_latency::total 250346765476                       # number of overall miss cycles
system.cpu.dcache.demand_accesses::.cpu.data    433795334                       # number of demand (read+write) accesses
system.cpu.dcache.demand_accesses::.switch_cpus.data     21480199                       # number of demand (read+write) accesses
system.cpu.dcache.demand_accesses::.switch_cpus_1.data    129744186                       # number of demand (read+write) accesses
system.cpu.dcache.demand_accesses::total    585019719                       # number of demand (read+write) accesses
system.cpu.dcache.overall_accesses::.cpu.data    433795334                       # number of overall (read+write) accesses
system.cpu.dcache.overall_accesses::.switch_cpus.data     21480199                       # number of overall (read+write) accesses
system.cpu.dcache.overall_accesses::.switch_cpus_1.data    129744186                       # number of overall (read+write) accesses
system.cpu.dcache.overall_accesses::total    585019719                       # number of overall (read+write) accesses
system.cpu.dcache.demand_miss_rate::.cpu.data     0.034799                       # miss rate for demand accesses
system.cpu.dcache.demand_miss_rate::.switch_cpus.data     0.027682                       # miss rate for demand accesses
system.cpu.dcache.demand_miss_rate::.switch_cpus_1.data     0.053926                       # miss rate for demand accesses
system.cpu.dcache.demand_miss_rate::total     0.038780                       # miss rate for demand accesses
system.cpu.dcache.overall_miss_rate::.cpu.data     0.034799                       # miss rate for overall accesses
system.cpu.dcache.overall_miss_rate::.switch_cpus.data     0.027682                       # miss rate for overall accesses
system.cpu.dcache.overall_miss_rate::.switch_cpus_1.data     0.053926                       # miss rate for overall accesses
system.cpu.dcache.overall_miss_rate::total     0.038780                       # miss rate for overall accesses
system.cpu.dcache.demand_avg_miss_latency::.switch_cpus.data 32185.209415                       # average overall miss latency
system.cpu.dcache.demand_avg_miss_latency::.switch_cpus_1.data 33046.056895                       # average overall miss latency
system.cpu.dcache.demand_avg_miss_latency::total 11034.887731                       # average overall miss latency
system.cpu.dcache.overall_avg_miss_latency::.switch_cpus.data 32185.209415                       # average overall miss latency
system.cpu.dcache.overall_avg_miss_latency::.switch_cpus_1.data 33046.056895                       # average overall miss latency
system.cpu.dcache.overall_avg_miss_latency::total 11034.887731                       # average overall miss latency
system.cpu.dcache.blocked_cycles::no_mshrs     19774106                       # number of cycles access was blocked
system.cpu.dcache.blocked_cycles::no_targets         1088                       # number of cycles access was blocked
system.cpu.dcache.blocked::no_mshrs           1124924                       # number of cycles access was blocked
system.cpu.dcache.blocked::no_targets               9                       # number of cycles access was blocked
system.cpu.dcache.avg_blocked_cycles::no_mshrs    17.578171                       # average number of cycles each access was blocked
system.cpu.dcache.avg_blocked_cycles::no_targets   120.888889                       # average number of cycles each access was blocked
system.cpu.dcache.writebacks::.writebacks      5575560                       # number of writebacks
system.cpu.dcache.writebacks::total           5575560                       # number of writebacks
system.cpu.dcache.demand_mshr_hits::.switch_cpus_1.data      2345697                       # number of demand (read+write) MSHR hits
system.cpu.dcache.demand_mshr_hits::total      2345697                       # number of demand (read+write) MSHR hits
system.cpu.dcache.overall_mshr_hits::.switch_cpus_1.data      2345697                       # number of overall MSHR hits
system.cpu.dcache.overall_mshr_hits::total      2345697                       # number of overall MSHR hits
system.cpu.dcache.demand_mshr_misses::.switch_cpus.data       594608                       # number of demand (read+write) MSHR misses
system.cpu.dcache.demand_mshr_misses::.switch_cpus_1.data      4650877                       # number of demand (read+write) MSHR misses
system.cpu.dcache.demand_mshr_misses::total      5245485                       # number of demand (read+write) MSHR misses
system.cpu.dcache.overall_mshr_misses::.switch_cpus.data       594608                       # number of overall MSHR misses
system.cpu.dcache.overall_mshr_misses::.switch_cpus_1.data      4650877                       # number of overall MSHR misses
system.cpu.dcache.overall_mshr_misses::total      5245485                       # number of overall MSHR misses
system.cpu.dcache.demand_mshr_miss_latency::.switch_cpus.data  18542975000                       # number of demand (read+write) MSHR miss cycles
system.cpu.dcache.demand_mshr_miss_latency::.switch_cpus_1.data 137228236476                       # number of demand (read+write) MSHR miss cycles
system.cpu.dcache.demand_mshr_miss_latency::total 155771211476                       # number of demand (read+write) MSHR miss cycles
system.cpu.dcache.overall_mshr_miss_latency::.switch_cpus.data  18542975000                       # number of overall MSHR miss cycles
system.cpu.dcache.overall_mshr_miss_latency::.switch_cpus_1.data 137228236476                       # number of overall MSHR miss cycles
system.cpu.dcache.overall_mshr_miss_latency::total 155771211476                       # number of overall MSHR miss cycles
system.cpu.dcache.demand_mshr_miss_rate::.switch_cpus.data     0.027682                       # mshr miss rate for demand accesses
system.cpu.dcache.demand_mshr_miss_rate::.switch_cpus_1.data     0.035847                       # mshr miss rate for demand accesses
system.cpu.dcache.demand_mshr_miss_rate::total     0.008966                       # mshr miss rate for demand accesses
system.cpu.dcache.overall_mshr_miss_rate::.switch_cpus.data     0.027682                       # mshr miss rate for overall accesses
system.cpu.dcache.overall_mshr_miss_rate::.switch_cpus_1.data     0.035847                       # mshr miss rate for overall accesses
system.cpu.dcache.overall_mshr_miss_rate::total     0.008966                       # mshr miss rate for overall accesses
system.cpu.dcache.demand_avg_mshr_miss_latency::.switch_cpus.data 31185.209415                       # average overall mshr miss latency
system.cpu.dcache.demand_avg_mshr_miss_latency::.switch_cpus_1.data 29505.883831                       # average overall mshr miss latency
system.cpu.dcache.demand_avg_mshr_miss_latency::total 29696.245719                       # average overall mshr miss latency
system.cpu.dcache.overall_avg_mshr_miss_latency::.switch_cpus.data 31185.209415                       # average overall mshr miss latency
system.cpu.dcache.overall_avg_mshr_miss_latency::.switch_cpus_1.data 29505.883831                       # average overall mshr miss latency
system.cpu.dcache.overall_avg_mshr_miss_latency::total 29696.245719                       # average overall mshr miss latency
system.cpu.dcache.replacements               18717286                       # number of replacements
system.cpu.dcache.ReadReq_hits::.cpu.data    311145526                       # number of ReadReq hits
system.cpu.dcache.ReadReq_hits::.switch_cpus.data     17716162                       # number of ReadReq hits
system.cpu.dcache.ReadReq_hits::.switch_cpus_1.data    100972740                       # number of ReadReq hits
system.cpu.dcache.ReadReq_hits::total       429834428                       # number of ReadReq hits
system.cpu.dcache.ReadReq_misses::.cpu.data     10610433                       # number of ReadReq misses
system.cpu.dcache.ReadReq_misses::.switch_cpus.data       451504                       # number of ReadReq misses
system.cpu.dcache.ReadReq_misses::.switch_cpus_1.data      6049192                       # number of ReadReq misses
system.cpu.dcache.ReadReq_misses::total      17111129                       # number of ReadReq misses
system.cpu.dcache.ReadReq_miss_latency::.switch_cpus.data  14125819000                       # number of ReadReq miss cycles
system.cpu.dcache.ReadReq_miss_latency::.switch_cpus_1.data 205264318500                       # number of ReadReq miss cycles
system.cpu.dcache.ReadReq_miss_latency::total 219390137500                       # number of ReadReq miss cycles
system.cpu.dcache.ReadReq_accesses::.cpu.data    321755959                       # number of ReadReq accesses(hits+misses)
system.cpu.dcache.ReadReq_accesses::.switch_cpus.data     18167666                       # number of ReadReq accesses(hits+misses)
system.cpu.dcache.ReadReq_accesses::.switch_cpus_1.data    107021932                       # number of ReadReq accesses(hits+misses)
system.cpu.dcache.ReadReq_accesses::total    446945557                       # number of ReadReq accesses(hits+misses)
system.cpu.dcache.ReadReq_miss_rate::.cpu.data     0.032977                       # miss rate for ReadReq accesses
system.cpu.dcache.ReadReq_miss_rate::.switch_cpus.data     0.024852                       # miss rate for ReadReq accesses
system.cpu.dcache.ReadReq_miss_rate::.switch_cpus_1.data     0.056523                       # miss rate for ReadReq accesses
system.cpu.dcache.ReadReq_miss_rate::total     0.038285                       # miss rate for ReadReq accesses
system.cpu.dcache.ReadReq_avg_miss_latency::.switch_cpus.data 31286.143644                       # average ReadReq miss latency
system.cpu.dcache.ReadReq_avg_miss_latency::.switch_cpus_1.data 33932.518343                       # average ReadReq miss latency
system.cpu.dcache.ReadReq_avg_miss_latency::total 12821.488138                       # average ReadReq miss latency
system.cpu.dcache.ReadReq_mshr_hits::.switch_cpus_1.data      2345685                       # number of ReadReq MSHR hits
system.cpu.dcache.ReadReq_mshr_hits::total      2345685                       # number of ReadReq MSHR hits
system.cpu.dcache.ReadReq_mshr_misses::.switch_cpus.data       451504                       # number of ReadReq MSHR misses
system.cpu.dcache.ReadReq_mshr_misses::.switch_cpus_1.data      3703507                       # number of ReadReq MSHR misses
system.cpu.dcache.ReadReq_mshr_misses::total      4155011                       # number of ReadReq MSHR misses
system.cpu.dcache.ReadReq_mshr_miss_latency::.switch_cpus.data  13674315000                       # number of ReadReq MSHR miss cycles
system.cpu.dcache.ReadReq_mshr_miss_latency::.switch_cpus_1.data 112230754500                       # number of ReadReq MSHR miss cycles
system.cpu.dcache.ReadReq_mshr_miss_latency::total 125905069500                       # number of ReadReq MSHR miss cycles
system.cpu.dcache.ReadReq_mshr_miss_rate::.switch_cpus.data     0.024852                       # mshr miss rate for ReadReq accesses
system.cpu.dcache.ReadReq_mshr_miss_rate::.switch_cpus_1.data     0.034605                       # mshr miss rate for ReadReq accesses
system.cpu.dcache.ReadReq_mshr_miss_rate::total     0.009296                       # mshr miss rate for ReadReq accesses
system.cpu.dcache.ReadReq_avg_mshr_miss_latency::.switch_cpus.data 30286.143644                       # average ReadReq mshr miss latency
system.cpu.dcache.ReadReq_avg_mshr_miss_latency::.switch_cpus_1.data 30303.913156                       # average ReadReq mshr miss latency
system.cpu.dcache.ReadReq_avg_mshr_miss_latency::total 30301.982233                       # average ReadReq mshr miss latency
system.cpu.dcache.WriteReq_hits::.cpu.data    107554147                       # number of WriteReq hits
system.cpu.dcache.WriteReq_hits::.switch_cpus.data      3169429                       # number of WriteReq hits
system.cpu.dcache.WriteReq_hits::.switch_cpus_1.data     21774872                       # number of WriteReq hits
system.cpu.dcache.WriteReq_hits::total      132498448                       # number of WriteReq hits
system.cpu.dcache.WriteReq_misses::.cpu.data      4485228                       # number of WriteReq misses
system.cpu.dcache.WriteReq_misses::.switch_cpus.data       143104                       # number of WriteReq misses
system.cpu.dcache.WriteReq_misses::.switch_cpus_1.data       947382                       # number of WriteReq misses
system.cpu.dcache.WriteReq_misses::total      5575714                       # number of WriteReq misses
system.cpu.dcache.WriteReq_miss_latency::.switch_cpus.data   5011764000                       # number of WriteReq miss cycles
system.cpu.dcache.WriteReq_miss_latency::.switch_cpus_1.data  25944863976                       # number of WriteReq miss cycles
system.cpu.dcache.WriteReq_miss_latency::total  30956627976                       # number of WriteReq miss cycles
system.cpu.dcache.WriteReq_accesses::.cpu.data    112039375                       # number of WriteReq accesses(hits+misses)
system.cpu.dcache.WriteReq_accesses::.switch_cpus.data      3312533                       # number of WriteReq accesses(hits+misses)
system.cpu.dcache.WriteReq_accesses::.switch_cpus_1.data     22722254                       # number of WriteReq accesses(hits+misses)
system.cpu.dcache.WriteReq_accesses::total    138074162                       # number of WriteReq accesses(hits+misses)
system.cpu.dcache.WriteReq_miss_rate::.cpu.data     0.040033                       # miss rate for WriteReq accesses
system.cpu.dcache.WriteReq_miss_rate::.switch_cpus.data     0.043201                       # miss rate for WriteReq accesses
system.cpu.dcache.WriteReq_miss_rate::.switch_cpus_1.data     0.041694                       # miss rate for WriteReq accesses
system.cpu.dcache.WriteReq_miss_rate::total     0.040382                       # miss rate for WriteReq accesses
system.cpu.dcache.WriteReq_avg_miss_latency::.switch_cpus.data 35021.830277                       # average WriteReq miss latency
system.cpu.dcache.WriteReq_avg_miss_latency::.switch_cpus_1.data 27385.852777                       # average WriteReq miss latency
system.cpu.dcache.WriteReq_avg_miss_latency::total  5552.047321                       # average WriteReq miss latency
system.cpu.dcache.WriteReq_mshr_hits::.switch_cpus_1.data           12                       # number of WriteReq MSHR hits
system.cpu.dcache.WriteReq_mshr_hits::total           12                       # number of WriteReq MSHR hits
system.cpu.dcache.WriteReq_mshr_misses::.switch_cpus.data       143104                       # number of WriteReq MSHR misses
system.cpu.dcache.WriteReq_mshr_misses::.switch_cpus_1.data       947370                       # number of WriteReq MSHR misses
system.cpu.dcache.WriteReq_mshr_misses::total      1090474                       # number of WriteReq MSHR misses
system.cpu.dcache.WriteReq_mshr_miss_latency::.switch_cpus.data   4868660000                       # number of WriteReq MSHR miss cycles
system.cpu.dcache.WriteReq_mshr_miss_latency::.switch_cpus_1.data  24997481976                       # number of WriteReq MSHR miss cycles
system.cpu.dcache.WriteReq_mshr_miss_latency::total  29866141976                       # number of WriteReq MSHR miss cycles
system.cpu.dcache.WriteReq_mshr_miss_rate::.switch_cpus.data     0.043201                       # mshr miss rate for WriteReq accesses
system.cpu.dcache.WriteReq_mshr_miss_rate::.switch_cpus_1.data     0.041693                       # mshr miss rate for WriteReq accesses
system.cpu.dcache.WriteReq_mshr_miss_rate::total     0.007898                       # mshr miss rate for WriteReq accesses
system.cpu.dcache.WriteReq_avg_mshr_miss_latency::.switch_cpus.data 34021.830277                       # average WriteReq mshr miss latency
system.cpu.dcache.WriteReq_avg_mshr_miss_latency::.switch_cpus_1.data 26386.186998                       # average WriteReq mshr miss latency
system.cpu.dcache.WriteReq_avg_mshr_miss_latency::total 27388.220146                       # average WriteReq mshr miss latency
system.cpu.dcache.power_state.pwrStateResidencyTicks::UNDEFINED 1321062444500                       # Cumulative time (in ticks) in various power states
system.cpu.dcache.tags.tagsinuse           511.995550                       # Cycle average of tags in use
system.cpu.dcache.tags.total_refs           582805118                       # Total number of references to valid blocks.
system.cpu.dcache.tags.sampled_refs          18717798                       # Sample count of references to valid blocks.
system.cpu.dcache.tags.avg_refs             31.136415                       # Average number of references to valid blocks.
system.cpu.dcache.tags.warmup_cycle              1500                       # Cycle when the warmup percentage was hit.
system.cpu.dcache.tags.occ_blocks::.cpu.data   397.783423                       # Average occupied blocks per requestor
system.cpu.dcache.tags.occ_blocks::.switch_cpus.data    41.582779                       # Average occupied blocks per requestor
system.cpu.dcache.tags.occ_blocks::.switch_cpus_1.data    72.629348                       # Average occupied blocks per requestor
system.cpu.dcache.tags.occ_percent::.cpu.data     0.776921                       # Average percentage of cache occupancy
system.cpu.dcache.tags.occ_percent::.switch_cpus.data     0.081216                       # Average percentage of cache occupancy
system.cpu.dcache.tags.occ_percent::.switch_cpus_1.data     0.141854                       # Average percentage of cache occupancy
system.cpu.dcache.tags.occ_percent::total     0.999991                       # Average percentage of cache occupancy
system.cpu.dcache.tags.occ_task_id_blocks::1024          512                       # Occupied blocks per task id
system.cpu.dcache.tags.age_task_id_blocks_1024::0           35                       # Occupied blocks per task id
system.cpu.dcache.tags.age_task_id_blocks_1024::1          319                       # Occupied blocks per task id
system.cpu.dcache.tags.age_task_id_blocks_1024::2          157                       # Occupied blocks per task id
system.cpu.dcache.tags.age_task_id_blocks_1024::3            1                       # Occupied blocks per task id
system.cpu.dcache.tags.occ_task_id_percent::1024            1                       # Percentage of cache occupancy per task id
system.cpu.dcache.tags.tag_accesses        2358796674                       # Number of tag accesses
system.cpu.dcache.tags.data_accesses       2358796674                       # Number of data accesses
system.cpu.dcache.tags.power_state.pwrStateResidencyTicks::UNDEFINED 1321062444500                       # Cumulative time (in ticks) in various power states
system.cpu.power_state.numTransitions               2                       # Number of power state transitions
system.cpu.power_state.pwrStateResidencyTicks::ON 1026110788500                       # Cumulative time (in ticks) in various power states
system.cpu.power_state.pwrStateResidencyTicks::OFF 294951656000                       # Cumulative time (in ticks) in various power states

---------- End Simulation Statistics   ----------
