
---------- Begin Simulation Statistics ----------
final_tick                               1348597697000                       # Number of ticks from beginning of simulation (restored from checkpoints and never reset)
host_inst_rate                                 599439                       # Simulator instruction rate (inst/s)
host_mem_usage                                4584132                       # Number of bytes of host memory used
host_op_rate                                  1170381                       # Simulator op (including micro ops) rate (op/s)
host_seconds                                  2168.69                       # Real time elapsed on the host
host_tick_rate                               41093691                       # Simulator tick rate (ticks/s)
sim_freq                                 1000000000000                       # Frequency of simulated ticks
sim_insts                                  1300000007                       # Number of instructions simulated
sim_ops                                    2538198300                       # Number of ops (including micro ops) simulated
sim_seconds                                  0.089120                       # Number of seconds simulated
sim_ticks                                 89119645000                       # Number of ticks simulated
system.cpu.committedInsts                           0                       # Number of instructions committed
system.cpu.committedOps                             0                       # Number of ops (including micro ops) committed
system.cpu.dtb.rdAccesses                           0                       # TLB accesses on read requests
system.cpu.dtb.rdMisses                             0                       # TLB misses on read requests
system.cpu.dtb.wrAccesses                           0                       # TLB accesses on write requests
system.cpu.dtb.wrMisses                             0                       # TLB misses on write requests
system.cpu.idle_fraction                            0                       # Percentage of idle cycles
system.cpu.itb.rdAccesses                           0                       # TLB accesses on read requests
system.cpu.itb.rdMisses                             0                       # TLB misses on read requests
system.cpu.itb.wrAccesses                           0                       # TLB accesses on write requests
system.cpu.itb.wrMisses                             0                       # TLB misses on write requests
system.cpu.not_idle_fraction                        1                       # Percentage of non-idle cycles
system.cpu.numCycles                                0                       # number of cpu cycles simulated
system.cpu.numWorkItemsCompleted                    0                       # number of work items this cpu completed
system.cpu.numWorkItemsStarted                      0                       # number of work items this cpu started
system.cpu.num_busy_cycles                          0                       # Number of busy cycles
system.cpu.num_conditional_control_insts            0                       # number of instructions that are conditional controls
system.cpu.num_fp_alu_accesses                      0                       # Number of float alu accesses
system.cpu.num_fp_insts                             0                       # number of float instructions
system.cpu.num_fp_register_reads                    0                       # number of times the floating registers were read
system.cpu.num_fp_register_writes                   0                       # number of times the floating registers were written
system.cpu.num_func_calls                           0                       # number of times a function call or return occured
system.cpu.num_idle_cycles                          0                       # Number of idle cycles
system.cpu.num_int_alu_accesses                     0                       # Number of integer alu accesses
system.cpu.num_int_insts                            0                       # number of integer instructions
system.cpu.num_int_register_reads                   0                       # number of times the integer registers were read
system.cpu.num_int_register_writes                  0                       # number of times the integer registers were written
system.cpu.num_load_insts                           0                       # Number of load instructions
system.cpu.num_mem_refs                             0                       # number of memory refs
system.cpu.num_store_insts                          0                       # Number of store instructions
system.cpu.num_vec_alu_accesses                     0                       # Number of vector alu accesses
system.cpu.num_vec_insts                            0                       # number of vector instructions
system.cpu.num_vec_register_reads                   0                       # number of times the vector registers were read
system.cpu.num_vec_register_writes                  0                       # number of times the vector registers were written
system.cpu.op_class::No_OpClass                     0                       # Class of executed instruction
system.cpu.op_class::IntAlu                         0                       # Class of executed instruction
system.cpu.op_class::IntMult                        0                       # Class of executed instruction
system.cpu.op_class::IntDiv                         0                       # Class of executed instruction
system.cpu.op_class::FloatAdd                       0                       # Class of executed instruction
system.cpu.op_class::FloatCmp                       0                       # Class of executed instruction
system.cpu.op_class::FloatCvt                       0                       # Class of executed instruction
system.cpu.op_class::FloatMult                      0                       # Class of executed instruction
system.cpu.op_class::FloatMultAcc                   0                       # Class of executed instruction
system.cpu.op_class::FloatDiv                       0                       # Class of executed instruction
system.cpu.op_class::FloatMisc                      0                       # Class of executed instruction
system.cpu.op_class::FloatSqrt                      0                       # Class of executed instruction
system.cpu.op_class::SimdAdd                        0                       # Class of executed instruction
system.cpu.op_class::SimdAddAcc                     0                       # Class of executed instruction
system.cpu.op_class::SimdAlu                        0                       # Class of executed instruction
system.cpu.op_class::SimdCmp                        0                       # Class of executed instruction
system.cpu.op_class::SimdCvt                        0                       # Class of executed instruction
system.cpu.op_class::SimdMisc                       0                       # Class of executed instruction
system.cpu.op_class::SimdMult                       0                       # Class of executed instruction
system.cpu.op_class::SimdMultAcc                    0                       # Class of executed instruction
system.cpu.op_class::SimdShift                      0                       # Class of executed instruction
system.cpu.op_class::SimdShiftAcc                   0                       # Class of executed instruction
system.cpu.op_class::SimdDiv                        0                       # Class of executed instruction
system.cpu.op_class::SimdSqrt                       0                       # Class of executed instruction
system.cpu.op_class::SimdFloatAdd                   0                       # Class of executed instruction
system.cpu.op_class::SimdFloatAlu                   0                       # Class of executed instruction
system.cpu.op_class::SimdFloatCmp                   0                       # Class of executed instruction
system.cpu.op_class::SimdFloatCvt                   0                       # Class of executed instruction
system.cpu.op_class::SimdFloatDiv                   0                       # Class of executed instruction
system.cpu.op_class::SimdFloatMisc                  0                       # Class of executed instruction
system.cpu.op_class::SimdFloatMult                  0                       # Class of executed instruction
system.cpu.op_class::SimdFloatMultAcc               0                       # Class of executed instruction
system.cpu.op_class::SimdFloatSqrt                  0                       # Class of executed instruction
system.cpu.op_class::SimdReduceAdd                  0                       # Class of executed instruction
system.cpu.op_class::SimdReduceAlu                  0                       # Class of executed instruction
system.cpu.op_class::SimdReduceCmp                  0                       # Class of executed instruction
system.cpu.op_class::SimdFloatReduceAdd             0                       # Class of executed instruction
system.cpu.op_class::SimdFloatReduceCmp             0                       # Class of executed instruction
system.cpu.op_class::SimdAes                        0                       # Class of executed instruction
system.cpu.op_class::SimdAesMix                     0                       # Class of executed instruction
system.cpu.op_class::SimdSha1Hash                   0                       # Class of executed instruction
system.cpu.op_class::SimdSha1Hash2                  0                       # Class of executed instruction
system.cpu.op_class::SimdSha256Hash                 0                       # Class of executed instruction
system.cpu.op_class::SimdSha256Hash2                0                       # Class of executed instruction
system.cpu.op_class::SimdShaSigma2                  0                       # Class of executed instruction
system.cpu.op_class::SimdShaSigma3                  0                       # Class of executed instruction
system.cpu.op_class::SimdPredAlu                    0                       # Class of executed instruction
system.cpu.op_class::MemRead                        0                       # Class of executed instruction
system.cpu.op_class::MemWrite                       0                       # Class of executed instruction
system.cpu.op_class::FloatMemRead                   0                       # Class of executed instruction
system.cpu.op_class::FloatMemWrite                  0                       # Class of executed instruction
system.cpu.op_class::IprAccess                      0                       # Class of executed instruction
system.cpu.op_class::InstPrefetch                   0                       # Class of executed instruction
system.cpu.op_class::total                          0                       # Class of executed instruction
system.cpu.workload.numSyscalls                   164                       # Number of system calls
system.membus.snoop_filter.hit_multi_requests            0                       # Number of requests hitting in the snoop filter with multiple (>1) holders of the requested data.
system.membus.snoop_filter.hit_multi_snoops            0                       # Number of snoops hitting in the snoop filter with multiple (>1) holders of the requested data.
system.membus.snoop_filter.hit_single_requests        95274                       # Number of requests hitting in the snoop filter with a single holder of the requested data.
system.membus.snoop_filter.hit_single_snoops            0                       # Number of snoops hitting in the snoop filter with a single holder of the requested data.
system.membus.snoop_filter.tot_requests        190413                       # Total number of requests made to the snoop filter.
system.membus.snoop_filter.tot_snoops               0                       # Total number of snoops made to the snoop filter.
system.switch_cpus.committedInsts                   0                       # Number of instructions committed
system.switch_cpus.committedOps                     0                       # Number of ops (including micro ops) committed
system.switch_cpus.dtb.rdAccesses                   0                       # TLB accesses on read requests
system.switch_cpus.dtb.rdMisses                     0                       # TLB misses on read requests
system.switch_cpus.dtb.wrAccesses                   0                       # TLB accesses on write requests
system.switch_cpus.dtb.wrMisses                     0                       # TLB misses on write requests
system.switch_cpus.idle_fraction                    0                       # Percentage of idle cycles
system.switch_cpus.itb.rdAccesses                   0                       # TLB accesses on read requests
system.switch_cpus.itb.rdMisses                     0                       # TLB misses on read requests
system.switch_cpus.itb.wrAccesses                   0                       # TLB accesses on write requests
system.switch_cpus.itb.wrMisses                     0                       # TLB misses on write requests
system.switch_cpus.not_idle_fraction                1                       # Percentage of non-idle cycles
system.switch_cpus.numCycles                        0                       # number of cpu cycles simulated
system.switch_cpus.numWorkItemsCompleted            0                       # number of work items this cpu completed
system.switch_cpus.numWorkItemsStarted              0                       # number of work items this cpu started
system.switch_cpus.num_busy_cycles                  0                       # Number of busy cycles
system.switch_cpus.num_conditional_control_insts            0                       # number of instructions that are conditional controls
system.switch_cpus.num_fp_alu_accesses              0                       # Number of float alu accesses
system.switch_cpus.num_fp_insts                     0                       # number of float instructions
system.switch_cpus.num_fp_register_reads            0                       # number of times the floating registers were read
system.switch_cpus.num_fp_register_writes            0                       # number of times the floating registers were written
system.switch_cpus.num_func_calls                   0                       # number of times a function call or return occured
system.switch_cpus.num_idle_cycles                  0                       # Number of idle cycles
system.switch_cpus.num_int_alu_accesses             0                       # Number of integer alu accesses
system.switch_cpus.num_int_insts                    0                       # number of integer instructions
system.switch_cpus.num_int_register_reads            0                       # number of times the integer registers were read
system.switch_cpus.num_int_register_writes            0                       # number of times the integer registers were written
system.switch_cpus.num_load_insts                   0                       # Number of load instructions
system.switch_cpus.num_mem_refs                     0                       # number of memory refs
system.switch_cpus.num_store_insts                  0                       # Number of store instructions
system.switch_cpus.num_vec_alu_accesses             0                       # Number of vector alu accesses
system.switch_cpus.num_vec_insts                    0                       # number of vector instructions
system.switch_cpus.num_vec_register_reads            0                       # number of times the vector registers were read
system.switch_cpus.num_vec_register_writes            0                       # number of times the vector registers were written
system.switch_cpus.op_class::No_OpClass             0                       # Class of executed instruction
system.switch_cpus.op_class::IntAlu                 0                       # Class of executed instruction
system.switch_cpus.op_class::IntMult                0                       # Class of executed instruction
system.switch_cpus.op_class::IntDiv                 0                       # Class of executed instruction
system.switch_cpus.op_class::FloatAdd               0                       # Class of executed instruction
system.switch_cpus.op_class::FloatCmp               0                       # Class of executed instruction
system.switch_cpus.op_class::FloatCvt               0                       # Class of executed instruction
system.switch_cpus.op_class::FloatMult              0                       # Class of executed instruction
system.switch_cpus.op_class::FloatMultAcc            0                       # Class of executed instruction
system.switch_cpus.op_class::FloatDiv               0                       # Class of executed instruction
system.switch_cpus.op_class::FloatMisc              0                       # Class of executed instruction
system.switch_cpus.op_class::FloatSqrt              0                       # Class of executed instruction
system.switch_cpus.op_class::SimdAdd                0                       # Class of executed instruction
system.switch_cpus.op_class::SimdAddAcc             0                       # Class of executed instruction
system.switch_cpus.op_class::SimdAlu                0                       # Class of executed instruction
system.switch_cpus.op_class::SimdCmp                0                       # Class of executed instruction
system.switch_cpus.op_class::SimdCvt                0                       # Class of executed instruction
system.switch_cpus.op_class::SimdMisc               0                       # Class of executed instruction
system.switch_cpus.op_class::SimdMult               0                       # Class of executed instruction
system.switch_cpus.op_class::SimdMultAcc            0                       # Class of executed instruction
system.switch_cpus.op_class::SimdShift              0                       # Class of executed instruction
system.switch_cpus.op_class::SimdShiftAcc            0                       # Class of executed instruction
system.switch_cpus.op_class::SimdDiv                0                       # Class of executed instruction
system.switch_cpus.op_class::SimdSqrt               0                       # Class of executed instruction
system.switch_cpus.op_class::SimdFloatAdd            0                       # Class of executed instruction
system.switch_cpus.op_class::SimdFloatAlu            0                       # Class of executed instruction
system.switch_cpus.op_class::SimdFloatCmp            0                       # Class of executed instruction
system.switch_cpus.op_class::SimdFloatCvt            0                       # Class of executed instruction
system.switch_cpus.op_class::SimdFloatDiv            0                       # Class of executed instruction
system.switch_cpus.op_class::SimdFloatMisc            0                       # Class of executed instruction
system.switch_cpus.op_class::SimdFloatMult            0                       # Class of executed instruction
system.switch_cpus.op_class::SimdFloatMultAcc            0                       # Class of executed instruction
system.switch_cpus.op_class::SimdFloatSqrt            0                       # Class of executed instruction
system.switch_cpus.op_class::SimdReduceAdd            0                       # Class of executed instruction
system.switch_cpus.op_class::SimdReduceAlu            0                       # Class of executed instruction
system.switch_cpus.op_class::SimdReduceCmp            0                       # Class of executed instruction
system.switch_cpus.op_class::SimdFloatReduceAdd            0                       # Class of executed instruction
system.switch_cpus.op_class::SimdFloatReduceCmp            0                       # Class of executed instruction
system.switch_cpus.op_class::SimdAes                0                       # Class of executed instruction
system.switch_cpus.op_class::SimdAesMix             0                       # Class of executed instruction
system.switch_cpus.op_class::SimdSha1Hash            0                       # Class of executed instruction
system.switch_cpus.op_class::SimdSha1Hash2            0                       # Class of executed instruction
system.switch_cpus.op_class::SimdSha256Hash            0                       # Class of executed instruction
system.switch_cpus.op_class::SimdSha256Hash2            0                       # Class of executed instruction
system.switch_cpus.op_class::SimdShaSigma2            0                       # Class of executed instruction
system.switch_cpus.op_class::SimdShaSigma3            0                       # Class of executed instruction
system.switch_cpus.op_class::SimdPredAlu            0                       # Class of executed instruction
system.switch_cpus.op_class::MemRead                0                       # Class of executed instruction
system.switch_cpus.op_class::MemWrite               0                       # Class of executed instruction
system.switch_cpus.op_class::FloatMemRead            0                       # Class of executed instruction
system.switch_cpus.op_class::FloatMemWrite            0                       # Class of executed instruction
system.switch_cpus.op_class::IprAccess              0                       # Class of executed instruction
system.switch_cpus.op_class::InstPrefetch            0                       # Class of executed instruction
system.switch_cpus.op_class::total                  0                       # Class of executed instruction
system.switch_cpus_1.branchPred.BTBCorrect            0                       # Number of correct BTB predictions (this stat may not work properly.
system.switch_cpus_1.branchPred.BTBHitPct          nan                       # BTB Hit Percentage
system.switch_cpus_1.branchPred.BTBHits             0                       # Number of BTB hits
system.switch_cpus_1.branchPred.BTBLookups            0                       # Number of BTB lookups
system.switch_cpus_1.branchPred.RASInCorrect           59                       # Number of incorrect RAS predictions.
system.switch_cpus_1.branchPred.condIncorrect      3144070                       # Number of conditional branches incorrect
system.switch_cpus_1.branchPred.condPredicted     60076029                       # Number of conditional branches predicted
system.switch_cpus_1.branchPred.indirectHits     22913209                       # Number of indirect target hits.
system.switch_cpus_1.branchPred.indirectLookups     29657932                       # Number of indirect predictor lookups.
system.switch_cpus_1.branchPred.indirectMisses      6744723                       # Number of indirect misses.
system.switch_cpus_1.branchPred.lookups      70049124                       # Number of BP lookups
system.switch_cpus_1.branchPred.usedRAS       4861230                       # Number of times the RAS was used to get a target.
system.switch_cpus_1.branchPredindirectMispredicted      2603692                       # Number of mispredicted indirect branches.
system.switch_cpus_1.cc_regfile_reads       284802983                       # number of cc regfile reads
system.switch_cpus_1.cc_regfile_writes      154499997                       # number of cc regfile writes
system.switch_cpus_1.commit.amos                    0                       # Number of atomic instructions committed
system.switch_cpus_1.commit.branchMispredicts      3144389                       # The number of times a branch was mispredicted
system.switch_cpus_1.commit.branches         53455060                       # Number of branches committed
system.switch_cpus_1.commit.bw_lim_events     30698215                       # number cycles where commit BW limit reached
system.switch_cpus_1.commit.commitNonSpecStalls          164                       # The number of times commit has been forced to stall to communicate backwards
system.switch_cpus_1.commit.commitSquashedInsts     87598709                       # The number of squashed insts skipped by commit
system.switch_cpus_1.commit.committedInsts    250000004                       # Number of instructions committed
system.switch_cpus_1.commit.committedOps    485475224                       # Number of ops (including micro ops) committed
system.switch_cpus_1.commit.committed_per_cycle::samples    165088118                       # Number of insts commited each cycle
system.switch_cpus_1.commit.committed_per_cycle::mean     2.940704                       # Number of insts commited each cycle
system.switch_cpus_1.commit.committed_per_cycle::stdev     2.967815                       # Number of insts commited each cycle
system.switch_cpus_1.commit.committed_per_cycle::underflows            0      0.00%      0.00% # Number of insts commited each cycle
system.switch_cpus_1.commit.committed_per_cycle::0     50461746     30.57%     30.57% # Number of insts commited each cycle
system.switch_cpus_1.commit.committed_per_cycle::1     22747958     13.78%     44.35% # Number of insts commited each cycle
system.switch_cpus_1.commit.committed_per_cycle::2     16326598      9.89%     54.24% # Number of insts commited each cycle
system.switch_cpus_1.commit.committed_per_cycle::3     20694107     12.54%     66.77% # Number of insts commited each cycle
system.switch_cpus_1.commit.committed_per_cycle::4      8473154      5.13%     71.90% # Number of insts commited each cycle
system.switch_cpus_1.commit.committed_per_cycle::5      7658735      4.64%     76.54% # Number of insts commited each cycle
system.switch_cpus_1.commit.committed_per_cycle::6      5973497      3.62%     80.16% # Number of insts commited each cycle
system.switch_cpus_1.commit.committed_per_cycle::7      2054108      1.24%     81.40% # Number of insts commited each cycle
system.switch_cpus_1.commit.committed_per_cycle::8     30698215     18.60%    100.00% # Number of insts commited each cycle
system.switch_cpus_1.commit.committed_per_cycle::overflows            0      0.00%    100.00% # Number of insts commited each cycle
system.switch_cpus_1.commit.committed_per_cycle::min_value            0                       # Number of insts commited each cycle
system.switch_cpus_1.commit.committed_per_cycle::max_value            8                       # Number of insts commited each cycle
system.switch_cpus_1.commit.committed_per_cycle::total    165088118                       # Number of insts commited each cycle
system.switch_cpus_1.commit.fp_insts          8240809                       # Number of committed floating point instructions.
system.switch_cpus_1.commit.function_calls      3371427                       # Number of function calls committed.
system.switch_cpus_1.commit.int_insts       478606594                       # Number of committed integer instructions.
system.switch_cpus_1.commit.loads            58771682                       # Number of loads committed
system.switch_cpus_1.commit.membars                 0                       # Number of memory barriers committed
system.switch_cpus_1.commit.op_class_0::No_OpClass      2274111      0.47%      0.47% # Class of committed instruction
system.switch_cpus_1.commit.op_class_0::IntAlu    374564368     77.15%     77.62% # Class of committed instruction
system.switch_cpus_1.commit.op_class_0::IntMult       385147      0.08%     77.70% # Class of committed instruction
system.switch_cpus_1.commit.op_class_0::IntDiv       694599      0.14%     77.85% # Class of committed instruction
system.switch_cpus_1.commit.op_class_0::FloatAdd       288539      0.06%     77.90% # Class of committed instruction
system.switch_cpus_1.commit.op_class_0::FloatCmp            0      0.00%     77.90% # Class of committed instruction
system.switch_cpus_1.commit.op_class_0::FloatCvt            0      0.00%     77.90% # Class of committed instruction
system.switch_cpus_1.commit.op_class_0::FloatMult            0      0.00%     77.90% # Class of committed instruction
system.switch_cpus_1.commit.op_class_0::FloatMultAcc            0      0.00%     77.90% # Class of committed instruction
system.switch_cpus_1.commit.op_class_0::FloatDiv            0      0.00%     77.90% # Class of committed instruction
system.switch_cpus_1.commit.op_class_0::FloatMisc            0      0.00%     77.90% # Class of committed instruction
system.switch_cpus_1.commit.op_class_0::FloatSqrt            0      0.00%     77.90% # Class of committed instruction
system.switch_cpus_1.commit.op_class_0::SimdAdd            0      0.00%     77.90% # Class of committed instruction
system.switch_cpus_1.commit.op_class_0::SimdAddAcc            0      0.00%     77.90% # Class of committed instruction
system.switch_cpus_1.commit.op_class_0::SimdAlu       144192      0.03%     77.93% # Class of committed instruction
system.switch_cpus_1.commit.op_class_0::SimdCmp            0      0.00%     77.93% # Class of committed instruction
system.switch_cpus_1.commit.op_class_0::SimdCvt      1832450      0.38%     78.31% # Class of committed instruction
system.switch_cpus_1.commit.op_class_0::SimdMisc      3852223      0.79%     79.11% # Class of committed instruction
system.switch_cpus_1.commit.op_class_0::SimdMult            0      0.00%     79.11% # Class of committed instruction
system.switch_cpus_1.commit.op_class_0::SimdMultAcc            0      0.00%     79.11% # Class of committed instruction
system.switch_cpus_1.commit.op_class_0::SimdShift            0      0.00%     79.11% # Class of committed instruction
system.switch_cpus_1.commit.op_class_0::SimdShiftAcc            0      0.00%     79.11% # Class of committed instruction
system.switch_cpus_1.commit.op_class_0::SimdDiv            0      0.00%     79.11% # Class of committed instruction
system.switch_cpus_1.commit.op_class_0::SimdSqrt            0      0.00%     79.11% # Class of committed instruction
system.switch_cpus_1.commit.op_class_0::SimdFloatAdd            0      0.00%     79.11% # Class of committed instruction
system.switch_cpus_1.commit.op_class_0::SimdFloatAlu            0      0.00%     79.11% # Class of committed instruction
system.switch_cpus_1.commit.op_class_0::SimdFloatCmp            0      0.00%     79.11% # Class of committed instruction
system.switch_cpus_1.commit.op_class_0::SimdFloatCvt            0      0.00%     79.11% # Class of committed instruction
system.switch_cpus_1.commit.op_class_0::SimdFloatDiv            0      0.00%     79.11% # Class of committed instruction
system.switch_cpus_1.commit.op_class_0::SimdFloatMisc            0      0.00%     79.11% # Class of committed instruction
system.switch_cpus_1.commit.op_class_0::SimdFloatMult            0      0.00%     79.11% # Class of committed instruction
system.switch_cpus_1.commit.op_class_0::SimdFloatMultAcc            0      0.00%     79.11% # Class of committed instruction
system.switch_cpus_1.commit.op_class_0::SimdFloatSqrt            0      0.00%     79.11% # Class of committed instruction
system.switch_cpus_1.commit.op_class_0::SimdReduceAdd            0      0.00%     79.11% # Class of committed instruction
system.switch_cpus_1.commit.op_class_0::SimdReduceAlu            0      0.00%     79.11% # Class of committed instruction
system.switch_cpus_1.commit.op_class_0::SimdReduceCmp            0      0.00%     79.11% # Class of committed instruction
system.switch_cpus_1.commit.op_class_0::SimdFloatReduceAdd            0      0.00%     79.11% # Class of committed instruction
system.switch_cpus_1.commit.op_class_0::SimdFloatReduceCmp            0      0.00%     79.11% # Class of committed instruction
system.switch_cpus_1.commit.op_class_0::SimdAes            0      0.00%     79.11% # Class of committed instruction
system.switch_cpus_1.commit.op_class_0::SimdAesMix            0      0.00%     79.11% # Class of committed instruction
system.switch_cpus_1.commit.op_class_0::SimdSha1Hash            0      0.00%     79.11% # Class of committed instruction
system.switch_cpus_1.commit.op_class_0::SimdSha1Hash2            0      0.00%     79.11% # Class of committed instruction
system.switch_cpus_1.commit.op_class_0::SimdSha256Hash            0      0.00%     79.11% # Class of committed instruction
system.switch_cpus_1.commit.op_class_0::SimdSha256Hash2            0      0.00%     79.11% # Class of committed instruction
system.switch_cpus_1.commit.op_class_0::SimdShaSigma2            0      0.00%     79.11% # Class of committed instruction
system.switch_cpus_1.commit.op_class_0::SimdShaSigma3            0      0.00%     79.11% # Class of committed instruction
system.switch_cpus_1.commit.op_class_0::SimdPredAlu            0      0.00%     79.11% # Class of committed instruction
system.switch_cpus_1.commit.op_class_0::MemRead     56939232     11.73%     90.83% # Class of committed instruction
system.switch_cpus_1.commit.op_class_0::MemWrite     42665497      8.79%     99.62% # Class of committed instruction
system.switch_cpus_1.commit.op_class_0::FloatMemRead      1832450      0.38%    100.00% # Class of committed instruction
system.switch_cpus_1.commit.op_class_0::FloatMemWrite         2416      0.00%    100.00% # Class of committed instruction
system.switch_cpus_1.commit.op_class_0::IprAccess            0      0.00%    100.00% # Class of committed instruction
system.switch_cpus_1.commit.op_class_0::InstPrefetch            0      0.00%    100.00% # Class of committed instruction
system.switch_cpus_1.commit.op_class_0::total    485475224                       # Class of committed instruction
system.switch_cpus_1.commit.refs            101439595                       # Number of memory references committed
system.switch_cpus_1.commit.swp_count               0                       # Number of s/w prefetches committed
system.switch_cpus_1.commit.vec_insts               0                       # Number of committed Vector instructions.
system.switch_cpus_1.committedInsts         250000004                       # Number of Instructions Simulated
system.switch_cpus_1.committedOps           485475224                       # Number of Ops (including micro ops) Simulated
system.switch_cpus_1.cpi                     0.712957                       # CPI: Cycles Per Instruction
system.switch_cpus_1.cpi_total               0.712957                       # CPI: Total CPI of All Threads
system.switch_cpus_1.decode.BlockedCycles     30912886                       # Number of cycles decode is blocked
system.switch_cpus_1.decode.DecodedInsts    619350146                       # Number of instructions handled by decode
system.switch_cpus_1.decode.IdleCycles       47111872                       # Number of cycles decode is idle
system.switch_cpus_1.decode.RunCycles        92894434                       # Number of cycles decode is running
system.switch_cpus_1.decode.SquashCycles      3150326                       # Number of cycles decode is squashing
system.switch_cpus_1.decode.UnblockCycles      4148586                       # Number of cycles decode is unblocking
system.switch_cpus_1.dtb.rdAccesses          64839504                       # TLB accesses on read requests
system.switch_cpus_1.dtb.rdMisses              369816                       # TLB misses on read requests
system.switch_cpus_1.dtb.wrAccesses          46101353                       # TLB accesses on write requests
system.switch_cpus_1.dtb.wrMisses               93052                       # TLB misses on write requests
system.switch_cpus_1.fetch.Branches          70049124                       # Number of branches that fetch encountered
system.switch_cpus_1.fetch.CacheLines        48034258                       # Number of cache lines fetched
system.switch_cpus_1.fetch.Cycles           124587107                       # Number of cycles fetch has run and was not squashing or blocked
system.switch_cpus_1.fetch.IcacheSquashes       870476                       # Number of outstanding Icache misses that were squashed
system.switch_cpus_1.fetch.IcacheWaitRetryStallCycles          181                       # Number of stall cycles due to full MSHR
system.switch_cpus_1.fetch.Insts            327424381                       # Number of instructions fetch has processed
system.switch_cpus_1.fetch.MiscStallCycles          499                       # Number of cycles fetch has spent waiting on interrupts, or bad addresses, or out of MSHRs
system.switch_cpus_1.fetch.PendingTrapStallCycles         2201                       # Number of stall cycles due to pending traps
system.switch_cpus_1.fetch.SquashCycles       6300652                       # Number of cycles fetch has spent squashing
system.switch_cpus_1.fetch.branchRate        0.393006                       # Number of branch fetches per cycle
system.switch_cpus_1.fetch.icacheStallCycles     50477792                       # Number of cycles fetch is stalled on an Icache miss
system.switch_cpus_1.fetch.predictedBranches     27774439                       # Number of branches that fetch has predicted taken
system.switch_cpus_1.fetch.rate              1.836993                       # Number of inst fetches per cycle
system.switch_cpus_1.fetch.rateDist::samples    178218106                       # Number of instructions fetched each cycle (Total)
system.switch_cpus_1.fetch.rateDist::mean     3.583466                       # Number of instructions fetched each cycle (Total)
system.switch_cpus_1.fetch.rateDist::stdev     3.573394                       # Number of instructions fetched each cycle (Total)
system.switch_cpus_1.fetch.rateDist::underflows            0      0.00%      0.00% # Number of instructions fetched each cycle (Total)
system.switch_cpus_1.fetch.rateDist::0       74847583     42.00%     42.00% # Number of instructions fetched each cycle (Total)
system.switch_cpus_1.fetch.rateDist::1        6471229      3.63%     45.63% # Number of instructions fetched each cycle (Total)
system.switch_cpus_1.fetch.rateDist::2        7812986      4.38%     50.01% # Number of instructions fetched each cycle (Total)
system.switch_cpus_1.fetch.rateDist::3        6638672      3.73%     53.74% # Number of instructions fetched each cycle (Total)
system.switch_cpus_1.fetch.rateDist::4        6528224      3.66%     57.40% # Number of instructions fetched each cycle (Total)
system.switch_cpus_1.fetch.rateDist::5        7613957      4.27%     61.67% # Number of instructions fetched each cycle (Total)
system.switch_cpus_1.fetch.rateDist::6        5212715      2.92%     64.60% # Number of instructions fetched each cycle (Total)
system.switch_cpus_1.fetch.rateDist::7        3575497      2.01%     66.60% # Number of instructions fetched each cycle (Total)
system.switch_cpus_1.fetch.rateDist::8       59517243     33.40%    100.00% # Number of instructions fetched each cycle (Total)
system.switch_cpus_1.fetch.rateDist::overflows            0      0.00%    100.00% # Number of instructions fetched each cycle (Total)
system.switch_cpus_1.fetch.rateDist::min_value            0                       # Number of instructions fetched each cycle (Total)
system.switch_cpus_1.fetch.rateDist::max_value            8                       # Number of instructions fetched each cycle (Total)
system.switch_cpus_1.fetch.rateDist::total    178218106                       # Number of instructions fetched each cycle (Total)
system.switch_cpus_1.fp_regfile_reads        14083238                       # number of floating regfile reads
system.switch_cpus_1.fp_regfile_writes        7318565                       # number of floating regfile writes
system.switch_cpus_1.idleCycles                 21184                       # Total number of cycles that the CPU has spent unscheduled due to idling
system.switch_cpus_1.iew.branchMispredicts      4124131                       # Number of branch mispredicts detected at execute
system.switch_cpus_1.iew.exec_branches       57164348                       # Number of branches executed
system.switch_cpus_1.iew.exec_nop                   0                       # number of nop insts executed
system.switch_cpus_1.iew.exec_rate           3.004531                       # Inst execution rate
system.switch_cpus_1.iew.exec_refs          110870047                       # number of memory reference insts executed
system.switch_cpus_1.iew.exec_stores         46078353                       # Number of stores executed
system.switch_cpus_1.iew.exec_swp                   0                       # number of swp insts executed
system.switch_cpus_1.iew.iewBlockCycles      10918603                       # Number of cycles IEW is blocking
system.switch_cpus_1.iew.iewDispLoadInsts     70237463                       # Number of dispatched load instructions
system.switch_cpus_1.iew.iewDispNonSpecInsts        55013                       # Number of dispatched non-speculative instructions
system.switch_cpus_1.iew.iewDispSquashedInsts       103205                       # Number of squashed instructions skipped by dispatch
system.switch_cpus_1.iew.iewDispStoreInsts     50347060                       # Number of dispatched store instructions
system.switch_cpus_1.iew.iewDispatchedInsts    573142373                       # Number of instructions dispatched to IQ
system.switch_cpus_1.iew.iewExecLoadInsts     64791694                       # Number of load instructions executed
system.switch_cpus_1.iew.iewExecSquashedInsts      7702675                       # Number of squashed instructions skipped in execute
system.switch_cpus_1.iew.iewExecutedInsts    535525462                       # Number of executed instructions
system.switch_cpus_1.iew.iewIQFullEvents        28871                       # Number of times the IQ has become full, causing a stall
system.switch_cpus_1.iew.iewIdleCycles              0                       # Number of cycles IEW is idle
system.switch_cpus_1.iew.iewLSQFullEvents       284159                       # Number of times the LSQ has become full, causing a stall
system.switch_cpus_1.iew.iewSquashCycles      3150326                       # Number of cycles IEW is squashing
system.switch_cpus_1.iew.iewUnblockCycles       341478                       # Number of cycles IEW is unblocking
system.switch_cpus_1.iew.lsq.thread0.blockedLoads            0                       # Number of blocked loads due to partial load-store forwarding
system.switch_cpus_1.iew.lsq.thread0.cacheBlocked           16                       # Number of times an access to memory failed due to the cache being blocked
system.switch_cpus_1.iew.lsq.thread0.forwLoads      7985648                       # Number of loads that had data forwarded from stores
system.switch_cpus_1.iew.lsq.thread0.ignoredResponses       118644                       # Number of memory responses ignored because the instruction is squashed
system.switch_cpus_1.iew.lsq.thread0.invAddrLoads            0                       # Number of loads ignored due to an invalid address
system.switch_cpus_1.iew.lsq.thread0.invAddrSwpfs            0                       # Number of software prefetches ignored due to an invalid address
system.switch_cpus_1.iew.lsq.thread0.memOrderViolation        14835                       # Number of memory ordering violations
system.switch_cpus_1.iew.lsq.thread0.rescheduledLoads        63175                       # Number of loads that were rescheduled
system.switch_cpus_1.iew.lsq.thread0.squashedLoads     11465769                       # Number of loads squashed
system.switch_cpus_1.iew.lsq.thread0.squashedStores      7679144                       # Number of stores squashed
system.switch_cpus_1.iew.memOrderViolationEvents        14835                       # Number of memory order violations
system.switch_cpus_1.iew.predictedNotTakenIncorrect      3958065                       # Number of branches that were predicted not taken incorrectly
system.switch_cpus_1.iew.predictedTakenIncorrect       166066                       # Number of branches that were predicted taken incorrectly
system.switch_cpus_1.iew.wb_consumers       606230360                       # num instructions consuming a value
system.switch_cpus_1.iew.wb_count           532739073                       # cumulative count of insts written-back
system.switch_cpus_1.iew.wb_fanout           0.631034                       # average fanout of values written-back
system.switch_cpus_1.iew.wb_producers       382551923                       # num instructions producing a value
system.switch_cpus_1.iew.wb_rate             2.988898                       # insts written-back per cycle
system.switch_cpus_1.iew.wb_sent            534099255                       # cumulative count of insts sent to commit
system.switch_cpus_1.int_regfile_reads      795861486                       # number of integer regfile reads
system.switch_cpus_1.int_regfile_writes     421796317                       # number of integer regfile writes
system.switch_cpus_1.ipc                     1.402609                       # IPC: Instructions Per Cycle
system.switch_cpus_1.ipc_total               1.402609                       # IPC: Total IPC of All Threads
system.switch_cpus_1.iq.FU_type_0::No_OpClass      3551293      0.65%      0.65% # Type of FU issued
system.switch_cpus_1.iq.FU_type_0::IntAlu    417962257     76.94%     77.59% # Type of FU issued
system.switch_cpus_1.iq.FU_type_0::IntMult       414049      0.08%     77.67% # Type of FU issued
system.switch_cpus_1.iq.FU_type_0::IntDiv       721154      0.13%     77.80% # Type of FU issued
system.switch_cpus_1.iq.FU_type_0::FloatAdd       288729      0.05%     77.86% # Type of FU issued
system.switch_cpus_1.iq.FU_type_0::FloatCmp            0      0.00%     77.86% # Type of FU issued
system.switch_cpus_1.iq.FU_type_0::FloatCvt            0      0.00%     77.86% # Type of FU issued
system.switch_cpus_1.iq.FU_type_0::FloatMult            0      0.00%     77.86% # Type of FU issued
system.switch_cpus_1.iq.FU_type_0::FloatMultAcc            0      0.00%     77.86% # Type of FU issued
system.switch_cpus_1.iq.FU_type_0::FloatDiv            0      0.00%     77.86% # Type of FU issued
system.switch_cpus_1.iq.FU_type_0::FloatMisc            0      0.00%     77.86% # Type of FU issued
system.switch_cpus_1.iq.FU_type_0::FloatSqrt            0      0.00%     77.86% # Type of FU issued
system.switch_cpus_1.iq.FU_type_0::SimdAdd            0      0.00%     77.86% # Type of FU issued
system.switch_cpus_1.iq.FU_type_0::SimdAddAcc            0      0.00%     77.86% # Type of FU issued
system.switch_cpus_1.iq.FU_type_0::SimdAlu       152516      0.03%     77.88% # Type of FU issued
system.switch_cpus_1.iq.FU_type_0::SimdCmp          132      0.00%     77.88% # Type of FU issued
system.switch_cpus_1.iq.FU_type_0::SimdCvt      2254519      0.42%     78.30% # Type of FU issued
system.switch_cpus_1.iq.FU_type_0::SimdMisc      4196630      0.77%     79.07% # Type of FU issued
system.switch_cpus_1.iq.FU_type_0::SimdMult            0      0.00%     79.07% # Type of FU issued
system.switch_cpus_1.iq.FU_type_0::SimdMultAcc            0      0.00%     79.07% # Type of FU issued
system.switch_cpus_1.iq.FU_type_0::SimdShift            0      0.00%     79.07% # Type of FU issued
system.switch_cpus_1.iq.FU_type_0::SimdShiftAcc            0      0.00%     79.07% # Type of FU issued
system.switch_cpus_1.iq.FU_type_0::SimdDiv            0      0.00%     79.07% # Type of FU issued
system.switch_cpus_1.iq.FU_type_0::SimdSqrt            0      0.00%     79.07% # Type of FU issued
system.switch_cpus_1.iq.FU_type_0::SimdFloatAdd            0      0.00%     79.07% # Type of FU issued
system.switch_cpus_1.iq.FU_type_0::SimdFloatAlu            0      0.00%     79.07% # Type of FU issued
system.switch_cpus_1.iq.FU_type_0::SimdFloatCmp            0      0.00%     79.07% # Type of FU issued
system.switch_cpus_1.iq.FU_type_0::SimdFloatCvt            0      0.00%     79.07% # Type of FU issued
system.switch_cpus_1.iq.FU_type_0::SimdFloatDiv            0      0.00%     79.07% # Type of FU issued
system.switch_cpus_1.iq.FU_type_0::SimdFloatMisc            0      0.00%     79.07% # Type of FU issued
system.switch_cpus_1.iq.FU_type_0::SimdFloatMult            0      0.00%     79.07% # Type of FU issued
system.switch_cpus_1.iq.FU_type_0::SimdFloatMultAcc            0      0.00%     79.07% # Type of FU issued
system.switch_cpus_1.iq.FU_type_0::SimdFloatSqrt            0      0.00%     79.07% # Type of FU issued
system.switch_cpus_1.iq.FU_type_0::SimdReduceAdd            0      0.00%     79.07% # Type of FU issued
system.switch_cpus_1.iq.FU_type_0::SimdReduceAlu            0      0.00%     79.07% # Type of FU issued
system.switch_cpus_1.iq.FU_type_0::SimdReduceCmp            0      0.00%     79.07% # Type of FU issued
system.switch_cpus_1.iq.FU_type_0::SimdFloatReduceAdd            0      0.00%     79.07% # Type of FU issued
system.switch_cpus_1.iq.FU_type_0::SimdFloatReduceCmp            0      0.00%     79.07% # Type of FU issued
system.switch_cpus_1.iq.FU_type_0::SimdAes            0      0.00%     79.07% # Type of FU issued
system.switch_cpus_1.iq.FU_type_0::SimdAesMix            0      0.00%     79.07% # Type of FU issued
system.switch_cpus_1.iq.FU_type_0::SimdSha1Hash            0      0.00%     79.07% # Type of FU issued
system.switch_cpus_1.iq.FU_type_0::SimdSha1Hash2            0      0.00%     79.07% # Type of FU issued
system.switch_cpus_1.iq.FU_type_0::SimdSha256Hash            0      0.00%     79.07% # Type of FU issued
system.switch_cpus_1.iq.FU_type_0::SimdSha256Hash2            0      0.00%     79.07% # Type of FU issued
system.switch_cpus_1.iq.FU_type_0::SimdShaSigma2            0      0.00%     79.07% # Type of FU issued
system.switch_cpus_1.iq.FU_type_0::SimdShaSigma3            0      0.00%     79.07% # Type of FU issued
system.switch_cpus_1.iq.FU_type_0::SimdPredAlu            0      0.00%     79.07% # Type of FU issued
system.switch_cpus_1.iq.FU_type_0::MemRead     63729699     11.73%     90.80% # Type of FU issued
system.switch_cpus_1.iq.FU_type_0::MemWrite     46736292      8.60%     99.41% # Type of FU issued
system.switch_cpus_1.iq.FU_type_0::FloatMemRead      2445341      0.45%     99.86% # Type of FU issued
system.switch_cpus_1.iq.FU_type_0::FloatMemWrite       775528      0.14%    100.00% # Type of FU issued
system.switch_cpus_1.iq.FU_type_0::IprAccess            0      0.00%    100.00% # Type of FU issued
system.switch_cpus_1.iq.FU_type_0::InstPrefetch            0      0.00%    100.00% # Type of FU issued
system.switch_cpus_1.iq.FU_type_0::total    543228139                       # Type of FU issued
system.switch_cpus_1.iq.fp_alu_accesses      10628077                       # Number of floating point alu accesses
system.switch_cpus_1.iq.fp_inst_queue_reads     21212916                       # Number of floating instruction queue reads
system.switch_cpus_1.iq.fp_inst_queue_wakeup_accesses      9976124                       # Number of floating instruction queue wakeup accesses
system.switch_cpus_1.iq.fp_inst_queue_writes     14986149                       # Number of floating instruction queue writes
system.switch_cpus_1.iq.fu_busy_cnt           7194500                       # FU busy when requested
system.switch_cpus_1.iq.fu_busy_rate         0.013244                       # FU busy rate (busy events/executed inst)
system.switch_cpus_1.iq.fu_full::No_OpClass            0      0.00%      0.00% # attempts to use FU when none available
system.switch_cpus_1.iq.fu_full::IntAlu       6457391     89.75%     89.75% # attempts to use FU when none available
system.switch_cpus_1.iq.fu_full::IntMult            0      0.00%     89.75% # attempts to use FU when none available
system.switch_cpus_1.iq.fu_full::IntDiv             0      0.00%     89.75% # attempts to use FU when none available
system.switch_cpus_1.iq.fu_full::FloatAdd            0      0.00%     89.75% # attempts to use FU when none available
system.switch_cpus_1.iq.fu_full::FloatCmp            0      0.00%     89.75% # attempts to use FU when none available
system.switch_cpus_1.iq.fu_full::FloatCvt            0      0.00%     89.75% # attempts to use FU when none available
system.switch_cpus_1.iq.fu_full::FloatMult            0      0.00%     89.75% # attempts to use FU when none available
system.switch_cpus_1.iq.fu_full::FloatMultAcc            0      0.00%     89.75% # attempts to use FU when none available
system.switch_cpus_1.iq.fu_full::FloatDiv            0      0.00%     89.75% # attempts to use FU when none available
system.switch_cpus_1.iq.fu_full::FloatMisc            0      0.00%     89.75% # attempts to use FU when none available
system.switch_cpus_1.iq.fu_full::FloatSqrt            0      0.00%     89.75% # attempts to use FU when none available
system.switch_cpus_1.iq.fu_full::SimdAdd            0      0.00%     89.75% # attempts to use FU when none available
system.switch_cpus_1.iq.fu_full::SimdAddAcc            0      0.00%     89.75% # attempts to use FU when none available
system.switch_cpus_1.iq.fu_full::SimdAlu          300      0.00%     89.76% # attempts to use FU when none available
system.switch_cpus_1.iq.fu_full::SimdCmp            0      0.00%     89.76% # attempts to use FU when none available
system.switch_cpus_1.iq.fu_full::SimdCvt         4668      0.06%     89.82% # attempts to use FU when none available
system.switch_cpus_1.iq.fu_full::SimdMisc            2      0.00%     89.82% # attempts to use FU when none available
system.switch_cpus_1.iq.fu_full::SimdMult            0      0.00%     89.82% # attempts to use FU when none available
system.switch_cpus_1.iq.fu_full::SimdMultAcc            0      0.00%     89.82% # attempts to use FU when none available
system.switch_cpus_1.iq.fu_full::SimdShift            0      0.00%     89.82% # attempts to use FU when none available
system.switch_cpus_1.iq.fu_full::SimdShiftAcc            0      0.00%     89.82% # attempts to use FU when none available
system.switch_cpus_1.iq.fu_full::SimdDiv            0      0.00%     89.82% # attempts to use FU when none available
system.switch_cpus_1.iq.fu_full::SimdSqrt            0      0.00%     89.82% # attempts to use FU when none available
system.switch_cpus_1.iq.fu_full::SimdFloatAdd            0      0.00%     89.82% # attempts to use FU when none available
system.switch_cpus_1.iq.fu_full::SimdFloatAlu            0      0.00%     89.82% # attempts to use FU when none available
system.switch_cpus_1.iq.fu_full::SimdFloatCmp            0      0.00%     89.82% # attempts to use FU when none available
system.switch_cpus_1.iq.fu_full::SimdFloatCvt            0      0.00%     89.82% # attempts to use FU when none available
system.switch_cpus_1.iq.fu_full::SimdFloatDiv            0      0.00%     89.82% # attempts to use FU when none available
system.switch_cpus_1.iq.fu_full::SimdFloatMisc            0      0.00%     89.82% # attempts to use FU when none available
system.switch_cpus_1.iq.fu_full::SimdFloatMult            0      0.00%     89.82% # attempts to use FU when none available
system.switch_cpus_1.iq.fu_full::SimdFloatMultAcc            0      0.00%     89.82% # attempts to use FU when none available
system.switch_cpus_1.iq.fu_full::SimdFloatSqrt            0      0.00%     89.82% # attempts to use FU when none available
system.switch_cpus_1.iq.fu_full::SimdReduceAdd            0      0.00%     89.82% # attempts to use FU when none available
system.switch_cpus_1.iq.fu_full::SimdReduceAlu            0      0.00%     89.82% # attempts to use FU when none available
system.switch_cpus_1.iq.fu_full::SimdReduceCmp            0      0.00%     89.82% # attempts to use FU when none available
system.switch_cpus_1.iq.fu_full::SimdFloatReduceAdd            0      0.00%     89.82% # attempts to use FU when none available
system.switch_cpus_1.iq.fu_full::SimdFloatReduceCmp            0      0.00%     89.82% # attempts to use FU when none available
system.switch_cpus_1.iq.fu_full::SimdAes            0      0.00%     89.82% # attempts to use FU when none available
system.switch_cpus_1.iq.fu_full::SimdAesMix            0      0.00%     89.82% # attempts to use FU when none available
system.switch_cpus_1.iq.fu_full::SimdSha1Hash            0      0.00%     89.82% # attempts to use FU when none available
system.switch_cpus_1.iq.fu_full::SimdSha1Hash2            0      0.00%     89.82% # attempts to use FU when none available
system.switch_cpus_1.iq.fu_full::SimdSha256Hash            0      0.00%     89.82% # attempts to use FU when none available
system.switch_cpus_1.iq.fu_full::SimdSha256Hash2            0      0.00%     89.82% # attempts to use FU when none available
system.switch_cpus_1.iq.fu_full::SimdShaSigma2            0      0.00%     89.82% # attempts to use FU when none available
system.switch_cpus_1.iq.fu_full::SimdShaSigma3            0      0.00%     89.82% # attempts to use FU when none available
system.switch_cpus_1.iq.fu_full::SimdPredAlu            0      0.00%     89.82% # attempts to use FU when none available
system.switch_cpus_1.iq.fu_full::MemRead       371245      5.16%     94.98% # attempts to use FU when none available
system.switch_cpus_1.iq.fu_full::MemWrite       139901      1.94%     96.93% # attempts to use FU when none available
system.switch_cpus_1.iq.fu_full::FloatMemRead           84      0.00%     96.93% # attempts to use FU when none available
system.switch_cpus_1.iq.fu_full::FloatMemWrite       220909      3.07%    100.00% # attempts to use FU when none available
system.switch_cpus_1.iq.fu_full::IprAccess            0      0.00%    100.00% # attempts to use FU when none available
system.switch_cpus_1.iq.fu_full::InstPrefetch            0      0.00%    100.00% # attempts to use FU when none available
system.switch_cpus_1.iq.int_alu_accesses    536243269                       # Number of integer alu accesses
system.switch_cpus_1.iq.int_inst_queue_reads   1251502381                       # Number of integer instruction queue reads
system.switch_cpus_1.iq.int_inst_queue_wakeup_accesses    522762949                       # Number of integer instruction queue wakeup accesses
system.switch_cpus_1.iq.int_inst_queue_writes    645828337                       # Number of integer instruction queue writes
system.switch_cpus_1.iq.iqInstsAdded        572978919                       # Number of instructions added to the IQ (excludes non-spec)
system.switch_cpus_1.iq.iqInstsIssued       543228139                       # Number of instructions issued
system.switch_cpus_1.iq.iqNonSpecInstsAdded       163454                       # Number of non-speculative instructions added to the IQ
system.switch_cpus_1.iq.iqSquashedInstsExamined     87667092                       # Number of squashed instructions iterated over during squash; mainly for profiling
system.switch_cpus_1.iq.iqSquashedInstsIssued       846415                       # Number of squashed instructions issued
system.switch_cpus_1.iq.iqSquashedNonSpecRemoved       163290                       # Number of squashed non-spec instructions that were removed
system.switch_cpus_1.iq.iqSquashedOperandsExamined    123988790                       # Number of squashed operands that are examined and possibly removed from graph
system.switch_cpus_1.iq.issued_per_cycle::samples    178218106                       # Number of insts issued each cycle
system.switch_cpus_1.iq.issued_per_cycle::mean     3.048109                       # Number of insts issued each cycle
system.switch_cpus_1.iq.issued_per_cycle::stdev     2.496712                       # Number of insts issued each cycle
system.switch_cpus_1.iq.issued_per_cycle::underflows            0      0.00%      0.00% # Number of insts issued each cycle
system.switch_cpus_1.iq.issued_per_cycle::0     45340831     25.44%     25.44% # Number of insts issued each cycle
system.switch_cpus_1.iq.issued_per_cycle::1     15600564      8.75%     34.19% # Number of insts issued each cycle
system.switch_cpus_1.iq.issued_per_cycle::2     20851478     11.70%     45.89% # Number of insts issued each cycle
system.switch_cpus_1.iq.issued_per_cycle::3     19064528     10.70%     56.59% # Number of insts issued each cycle
system.switch_cpus_1.iq.issued_per_cycle::4     20304863     11.39%     67.99% # Number of insts issued each cycle
system.switch_cpus_1.iq.issued_per_cycle::5     19093259     10.71%     78.70% # Number of insts issued each cycle
system.switch_cpus_1.iq.issued_per_cycle::6     19591309     10.99%     89.69% # Number of insts issued each cycle
system.switch_cpus_1.iq.issued_per_cycle::7     12472758      7.00%     96.69% # Number of insts issued each cycle
system.switch_cpus_1.iq.issued_per_cycle::8      5898516      3.31%    100.00% # Number of insts issued each cycle
system.switch_cpus_1.iq.issued_per_cycle::overflows            0      0.00%    100.00% # Number of insts issued each cycle
system.switch_cpus_1.iq.issued_per_cycle::min_value            0                       # Number of insts issued each cycle
system.switch_cpus_1.iq.issued_per_cycle::max_value            8                       # Number of insts issued each cycle
system.switch_cpus_1.iq.issued_per_cycle::total    178218106                       # Number of insts issued each cycle
system.switch_cpus_1.iq.rate                 3.047746                       # Inst issue rate
system.switch_cpus_1.iq.vec_alu_accesses            0                       # Number of vector alu accesses
system.switch_cpus_1.iq.vec_inst_queue_reads            0                       # Number of vector instruction queue reads
system.switch_cpus_1.iq.vec_inst_queue_wakeup_accesses            0                       # Number of vector instruction queue wakeup accesses
system.switch_cpus_1.iq.vec_inst_queue_writes            0                       # Number of vector instruction queue writes
system.switch_cpus_1.itb.rdAccesses                 0                       # TLB accesses on read requests
system.switch_cpus_1.itb.rdMisses                   0                       # TLB misses on read requests
system.switch_cpus_1.itb.wrAccesses          48034634                       # TLB accesses on write requests
system.switch_cpus_1.itb.wrMisses                 416                       # TLB misses on write requests
system.switch_cpus_1.memDep0.conflictingLoads      1932829                       # Number of conflicting loads.
system.switch_cpus_1.memDep0.conflictingStores       865510                       # Number of conflicting stores.
system.switch_cpus_1.memDep0.insertedLoads     70237463                       # Number of loads inserted to the mem dependence unit.
system.switch_cpus_1.memDep0.insertedStores     50347060                       # Number of stores inserted to the mem dependence unit.
system.switch_cpus_1.misc_regfile_reads     227519714                       # number of misc regfile reads
system.switch_cpus_1.numCycles              178239290                       # number of cpu cycles simulated
system.switch_cpus_1.numWorkItemsCompleted            0                       # number of work items this cpu completed
system.switch_cpus_1.numWorkItemsStarted            0                       # number of work items this cpu started
system.switch_cpus_1.rename.BlockCycles      12358829                       # Number of cycles rename is blocking
system.switch_cpus_1.rename.CommittedMaps    533112517                       # Number of HB maps that are committed
system.switch_cpus_1.rename.IQFullEvents       782197                       # Number of times rename has blocked due to IQ full
system.switch_cpus_1.rename.IdleCycles       49984893                       # Number of cycles rename is idle
system.switch_cpus_1.rename.LQFullEvents     10705059                       # Number of times rename has blocked due to LQ full
system.switch_cpus_1.rename.ROBFullEvents        80168                       # Number of times rename has blocked due to ROB full
system.switch_cpus_1.rename.RenameLookups   1516334303                       # Number of register rename lookups that rename has made
system.switch_cpus_1.rename.RenamedInsts    603234882                       # Number of instructions processed by rename
system.switch_cpus_1.rename.RenamedOperands    657159228                       # Number of destination operands rename has renamed
system.switch_cpus_1.rename.RunCycles        93943108                       # Number of cycles rename is running
system.switch_cpus_1.rename.SQFullEvents      6764456                       # Number of times rename has blocked due to SQ full
system.switch_cpus_1.rename.SquashCycles      3150326                       # Number of cycles rename is squashing
system.switch_cpus_1.rename.UnblockCycles     18776182                       # Number of cycles rename is unblocking
system.switch_cpus_1.rename.UndoneMaps      124046637                       # Number of HB maps that are undone due to squashing
system.switch_cpus_1.rename.fp_rename_lookups     16553952                       # Number of floating rename lookups
system.switch_cpus_1.rename.int_rename_lookups    914668211                       # Number of integer rename lookups
system.switch_cpus_1.rename.serializeStallCycles         4766                       # count of cycles rename stalled for serializing inst
system.switch_cpus_1.rename.serializingInsts          171                       # count of serializing insts renamed
system.switch_cpus_1.rename.skidInsts         9923583                       # count of insts added to the skid buffer
system.switch_cpus_1.rename.tempSerializingInsts          165                       # count of temporary serializing insts renamed
system.switch_cpus_1.rob.rob_reads          707444089                       # The number of ROB reads
system.switch_cpus_1.rob.rob_writes        1159415322                       # The number of ROB writes
system.switch_cpus_1.timesIdled                  7546                       # Number of times that the entire CPU went into an idle state and unscheduled itself
system.tol2bus.snoop_filter.hit_multi_requests            0                       # Number of requests hitting in the snoop filter with multiple (>1) holders of the requested data.
system.tol2bus.snoop_filter.hit_multi_snoops            0                       # Number of snoops hitting in the snoop filter with multiple (>1) holders of the requested data.
system.tol2bus.snoop_filter.hit_single_requests       219521                       # Number of requests hitting in the snoop filter with a single holder of the requested data.
system.tol2bus.snoop_filter.hit_single_snoops          146                       # Number of snoops hitting in the snoop filter with a single holder of the requested data.
system.tol2bus.snoop_filter.tot_requests       422052                       # Total number of requests made to the snoop filter.
system.tol2bus.snoop_filter.tot_snoops            146                       # Total number of snoops made to the snoop filter.
system.tol3bus.snoop_filter.hit_multi_requests            0                       # Number of requests hitting in the snoop filter with multiple (>1) holders of the requested data.
system.tol3bus.snoop_filter.hit_multi_snoops            0                       # Number of snoops hitting in the snoop filter with multiple (>1) holders of the requested data.
system.tol3bus.snoop_filter.hit_single_requests       139025                       # Number of requests hitting in the snoop filter with a single holder of the requested data.
system.tol3bus.snoop_filter.hit_single_snoops         2782                       # Number of snoops hitting in the snoop filter with a single holder of the requested data.
system.tol3bus.snoop_filter.tot_requests       272176                       # Total number of requests made to the snoop filter.
system.tol3bus.snoop_filter.tot_snoops           2782                       # Total number of snoops made to the snoop filter.
system.membus.trans_dist::ReadResp              70320                       # Transaction distribution
system.membus.trans_dist::WritebackDirty        73010                       # Transaction distribution
system.membus.trans_dist::CleanEvict            22264                       # Transaction distribution
system.membus.trans_dist::ReadExReq             24819                       # Transaction distribution
system.membus.trans_dist::ReadExResp            24819                       # Transaction distribution
system.membus.trans_dist::ReadSharedReq         70320                       # Transaction distribution
system.membus.pkt_count_system.l3.mem_side::system.mem_ctrls.port       285552                       # Packet count per connected master and slave (bytes)
system.membus.pkt_count_system.l3.mem_side::total       285552                       # Packet count per connected master and slave (bytes)
system.membus.pkt_count::total                 285552                       # Packet count per connected master and slave (bytes)
system.membus.pkt_size_system.l3.mem_side::system.mem_ctrls.port     10761536                       # Cumulative packet size per connected master and slave (bytes)
system.membus.pkt_size_system.l3.mem_side::total     10761536                       # Cumulative packet size per connected master and slave (bytes)
system.membus.pkt_size::total                10761536                       # Cumulative packet size per connected master and slave (bytes)
system.membus.snoops                                0                       # Total snoops (count)
system.membus.snoopTraffic                          0                       # Total snoop traffic (bytes)
system.membus.snoop_fanout::samples             95139                       # Request fanout histogram
system.membus.snoop_fanout::mean                    0                       # Request fanout histogram
system.membus.snoop_fanout::stdev                   0                       # Request fanout histogram
system.membus.snoop_fanout::underflows              0      0.00%      0.00% # Request fanout histogram
system.membus.snoop_fanout::0                   95139    100.00%    100.00% # Request fanout histogram
system.membus.snoop_fanout::1                       0      0.00%    100.00% # Request fanout histogram
system.membus.snoop_fanout::overflows               0      0.00%    100.00% # Request fanout histogram
system.membus.snoop_fanout::min_value               0                       # Request fanout histogram
system.membus.snoop_fanout::max_value               0                       # Request fanout histogram
system.membus.snoop_fanout::total               95139                       # Request fanout histogram
system.membus.reqLayer2.occupancy           510834000                       # Layer occupancy (ticks)
system.membus.reqLayer2.utilization               0.6                       # Layer utilization (%)
system.membus.respLayer1.occupancy          509974000                       # Layer occupancy (ticks)
system.membus.respLayer1.utilization              0.6                       # Layer utilization (%)
system.membus.power_state.pwrStateResidencyTicks::UNDEFINED 1348597697000                       # Cumulative time (in ticks) in various power states
system.switch_cpus_1.dtb.walker.power_state.pwrStateResidencyTicks::UNDEFINED 1348597697000                       # Cumulative time (in ticks) in various power states
system.switch_cpus_1.itb.walker.power_state.pwrStateResidencyTicks::UNDEFINED 1348597697000                       # Cumulative time (in ticks) in various power states
system.switch_cpus_1.power_state.pwrStateResidencyTicks::OFF 1348597697000                       # Cumulative time (in ticks) in various power states
system.switch_cpus.dtb.walker.power_state.pwrStateResidencyTicks::UNDEFINED 1348597697000                       # Cumulative time (in ticks) in various power states
system.switch_cpus.itb.walker.power_state.pwrStateResidencyTicks::UNDEFINED 1348597697000                       # Cumulative time (in ticks) in various power states
system.switch_cpus.power_state.numTransitions            1                       # Number of power state transitions
system.switch_cpus.power_state.pwrStateResidencyTicks::OFF 1348597697000                       # Cumulative time (in ticks) in various power states
system.tol2bus.trans_dist::ReadResp            165585                       # Transaction distribution
system.tol2bus.trans_dist::WritebackDirty        87131                       # Transaction distribution
system.tol2bus.trans_dist::WritebackClean        24709                       # Transaction distribution
system.tol2bus.trans_dist::CleanEvict          126887                       # Transaction distribution
system.tol2bus.trans_dist::UpgradeReq           16990                       # Transaction distribution
system.tol2bus.trans_dist::UpgradeResp          16990                       # Transaction distribution
system.tol2bus.trans_dist::ReadExReq            36946                       # Transaction distribution
system.tol2bus.trans_dist::ReadExResp           36946                       # Transaction distribution
system.tol2bus.trans_dist::ReadCleanReq        165585                       # Transaction distribution
system.tol2bus.pkt_count_system.cpu.icache.mem_side::system.l2.cpu_side        74127                       # Packet count per connected master and slave (bytes)
system.tol2bus.pkt_count_system.cpu.dcache.mem_side::system.l2.cpu_side       567446                       # Packet count per connected master and slave (bytes)
system.tol2bus.pkt_count::total                641573                       # Packet count per connected master and slave (bytes)
system.tol2bus.pkt_size_system.cpu.icache.mem_side::system.l2.cpu_side      3162752                       # Cumulative packet size per connected master and slave (bytes)
system.tol2bus.pkt_size_system.cpu.dcache.mem_side::system.l2.cpu_side     14833792                       # Cumulative packet size per connected master and slave (bytes)
system.tol2bus.pkt_size::total               17996544                       # Cumulative packet size per connected master and slave (bytes)
system.tol2bus.snoops                           36196                       # Total snoops (count)
system.tol2bus.snoopTraffic                   2123200                       # Total snoop traffic (bytes)
system.tol2bus.snoop_fanout::samples           255717                       # Request fanout histogram
system.tol2bus.snoop_fanout::mean            0.000571                       # Request fanout histogram
system.tol2bus.snoop_fanout::stdev           0.023888                       # Request fanout histogram
system.tol2bus.snoop_fanout::underflows             0      0.00%      0.00% # Request fanout histogram
system.tol2bus.snoop_fanout::0                 255571     99.94%     99.94% # Request fanout histogram
system.tol2bus.snoop_fanout::1                    146      0.06%    100.00% # Request fanout histogram
system.tol2bus.snoop_fanout::2                      0      0.00%    100.00% # Request fanout histogram
system.tol2bus.snoop_fanout::3                      0      0.00%    100.00% # Request fanout histogram
system.tol2bus.snoop_fanout::4                      0      0.00%    100.00% # Request fanout histogram
system.tol2bus.snoop_fanout::overflows              0      0.00%    100.00% # Request fanout histogram
system.tol2bus.snoop_fanout::min_value              0                       # Request fanout histogram
system.tol2bus.snoop_fanout::max_value              1                       # Request fanout histogram
system.tol2bus.snoop_fanout::total             255717                       # Request fanout histogram
system.tol2bus.reqLayer0.occupancy          289691000                       # Layer occupancy (ticks)
system.tol2bus.reqLayer0.utilization              0.3                       # Layer utilization (%)
system.tol2bus.respLayer1.occupancy         275234487                       # Layer occupancy (ticks)
system.tol2bus.respLayer1.utilization             0.3                       # Layer utilization (%)
system.tol2bus.respLayer0.occupancy          37063500                       # Layer occupancy (ticks)
system.tol2bus.respLayer0.utilization             0.0                       # Layer utilization (%)
system.tol2bus.power_state.pwrStateResidencyTicks::UNDEFINED 1348597697000                       # Cumulative time (in ticks) in various power states
system.voltage_domain.voltage                       1                       # Voltage in Volts
system.clk_domain.clock                          1000                       # Clock period in ticks
system.l2.demand_hits::.switch_cpus_1.inst        24469                       # number of demand (read+write) hits
system.l2.demand_hits::.switch_cpus_1.data        44911                       # number of demand (read+write) hits
system.l2.demand_hits::total                    69380                       # number of demand (read+write) hits
system.l2.overall_hits::.switch_cpus_1.inst        24469                       # number of overall hits
system.l2.overall_hits::.switch_cpus_1.data        44911                       # number of overall hits
system.l2.overall_hits::total                   69380                       # number of overall hits
system.l2.demand_misses::.switch_cpus_1.inst          240                       # number of demand (read+write) misses
system.l2.demand_misses::.switch_cpus_1.data       132911                       # number of demand (read+write) misses
system.l2.demand_misses::total                 133151                       # number of demand (read+write) misses
system.l2.overall_misses::.switch_cpus_1.inst          240                       # number of overall misses
system.l2.overall_misses::.switch_cpus_1.data       132911                       # number of overall misses
system.l2.overall_misses::total                133151                       # number of overall misses
system.l2.demand_miss_latency::.switch_cpus_1.inst     22817000                       # number of demand (read+write) miss cycles
system.l2.demand_miss_latency::.switch_cpus_1.data  10558857000                       # number of demand (read+write) miss cycles
system.l2.demand_miss_latency::total      10581674000                       # number of demand (read+write) miss cycles
system.l2.overall_miss_latency::.switch_cpus_1.inst     22817000                       # number of overall miss cycles
system.l2.overall_miss_latency::.switch_cpus_1.data  10558857000                       # number of overall miss cycles
system.l2.overall_miss_latency::total     10581674000                       # number of overall miss cycles
system.l2.demand_accesses::.switch_cpus_1.inst        24709                       # number of demand (read+write) accesses
system.l2.demand_accesses::.switch_cpus_1.data       177822                       # number of demand (read+write) accesses
system.l2.demand_accesses::total               202531                       # number of demand (read+write) accesses
system.l2.overall_accesses::.switch_cpus_1.inst        24709                       # number of overall (read+write) accesses
system.l2.overall_accesses::.switch_cpus_1.data       177822                       # number of overall (read+write) accesses
system.l2.overall_accesses::total              202531                       # number of overall (read+write) accesses
system.l2.demand_miss_rate::.switch_cpus_1.inst     0.009713                       # miss rate for demand accesses
system.l2.demand_miss_rate::.switch_cpus_1.data     0.747438                       # miss rate for demand accesses
system.l2.demand_miss_rate::total            0.657435                       # miss rate for demand accesses
[...]
system.cpu.dcache.demand_miss_latency::total  34990290000                       # number of demand (read+write) miss cycles
system.cpu.dcache.overall_miss_latency::.switch_cpus.data    827253500                       # number of overall miss cycles
system.cpu.dcache.overall_miss_latency::.switch_cpus_1.data  34163036500                       # number of overall miss cycles
system.cpu.dcache.overall_miss_latency::total  34990290000                       # number of overall miss cycles
system.cpu.dcache.demand_accesses::.cpu.data    398468329                       # number of demand (read+write) accesses
system.cpu.dcache.demand_accesses::.switch_cpus.data     19936533                       # number of demand (read+write) accesses
system.cpu.dcache.demand_accesses::.switch_cpus_1.data     99117418                       # number of demand (read+write) accesses
system.cpu.dcache.demand_accesses::total    517522280                       # number of demand (read+write) accesses
system.cpu.dcache.overall_accesses::.cpu.data    398468329                       # number of overall (read+write) accesses
system.cpu.dcache.overall_accesses::.switch_cpus.data     19936533                       # number of overall (read+write) accesses
system.cpu.dcache.overall_accesses::.switch_cpus_1.data     99117418                       # number of overall (read+write) accesses
system.cpu.dcache.overall_accesses::total    517522280                       # number of overall (read+write) accesses
system.cpu.dcache.demand_miss_rate::.cpu.data     0.001211                       # miss rate for demand accesses
system.cpu.dcache.demand_miss_rate::.switch_cpus.data     0.000969                       # miss rate for demand accesses
system.cpu.dcache.demand_miss_rate::.switch_cpus_1.data     0.005196                       # miss rate for demand accesses
system.cpu.dcache.demand_miss_rate::total     0.001965                       # miss rate for demand accesses
system.cpu.dcache.overall_miss_rate::.cpu.data     0.001211                       # miss rate for overall accesses
system.cpu.dcache.overall_miss_rate::.switch_cpus.data     0.000969                       # miss rate for overall accesses
system.cpu.dcache.overall_miss_rate::.switch_cpus_1.data     0.005196                       # miss rate for overall accesses
system.cpu.dcache.overall_miss_rate::total     0.001965                       # miss rate for overall accesses
system.cpu.dcache.demand_avg_miss_latency::.switch_cpus.data 42805.210597                       # average overall miss latency
system.cpu.dcache.demand_avg_miss_latency::.switch_cpus_1.data 66334.189944                       # average overall miss latency
system.cpu.dcache.demand_avg_miss_latency::total 34405.364400                       # average overall miss latency
system.cpu.dcache.overall_avg_miss_latency::.switch_cpus.data 42805.210597                       # average overall miss latency
system.cpu.dcache.overall_avg_miss_latency::.switch_cpus_1.data 66334.189944                       # average overall miss latency
system.cpu.dcache.overall_avg_miss_latency::total 34405.364400                       # average overall miss latency
system.cpu.dcache.blocked_cycles::no_mshrs          450                       # number of cycles access was blocked
system.cpu.dcache.blocked_cycles::no_targets            0                       # number of cycles access was blocked
system.cpu.dcache.blocked::no_mshrs                20                       # number of cycles access was blocked
system.cpu.dcache.blocked::no_targets               0                       # number of cycles access was blocked
system.cpu.dcache.avg_blocked_cycles::no_mshrs    22.500000                       # average number of cycles each access was blocked
system.cpu.dcache.avg_blocked_cycles::no_targets          nan                       # average number of cycles each access was blocked
system.cpu.dcache.writebacks::.writebacks       277117                       # number of writebacks
system.cpu.dcache.writebacks::total            277117                       # number of writebacks
system.cpu.dcache.demand_mshr_hits::.switch_cpus_1.data       320288                       # number of demand (read+write) MSHR hits
system.cpu.dcache.demand_mshr_hits::total       320288                       # number of demand (read+write) MSHR hits
system.cpu.dcache.overall_mshr_hits::.switch_cpus_1.data       320288                       # number of overall MSHR hits
system.cpu.dcache.overall_mshr_hits::total       320288                       # number of overall MSHR hits
system.cpu.dcache.demand_mshr_misses::.switch_cpus.data        19326                       # number of demand (read+write) MSHR misses
system.cpu.dcache.demand_mshr_misses::.switch_cpus_1.data       194726                       # number of demand (read+write) MSHR misses
system.cpu.dcache.demand_mshr_misses::total       214052                       # number of demand (read+write) MSHR misses
system.cpu.dcache.overall_mshr_misses::.switch_cpus.data        19326                       # number of overall MSHR misses
system.cpu.dcache.overall_mshr_misses::.switch_cpus_1.data       194726                       # number of overall MSHR misses
system.cpu.dcache.overall_mshr_misses::total       214052                       # number of overall MSHR misses
system.cpu.dcache.demand_mshr_miss_latency::.switch_cpus.data    807927500                       # number of demand (read+write) MSHR miss cycles
system.cpu.dcache.demand_mshr_miss_latency::.switch_cpus_1.data  11546038000                       # number of demand (read+write) MSHR miss cycles
system.cpu.dcache.demand_mshr_miss_latency::total  12353965500                       # number of demand (read+write) MSHR miss cycles
system.cpu.dcache.overall_mshr_miss_latency::.switch_cpus.data    807927500                       # number of overall MSHR miss cycles
system.cpu.dcache.overall_mshr_miss_latency::.switch_cpus_1.data  11546038000                       # number of overall MSHR miss cycles
system.cpu.dcache.overall_mshr_miss_latency::total  12353965500                       # number of overall MSHR miss cycles
system.cpu.dcache.demand_mshr_miss_rate::.switch_cpus.data     0.000969                       # mshr miss rate for demand accesses
system.cpu.dcache.demand_mshr_miss_rate::.switch_cpus_1.data     0.001965                       # mshr miss rate for demand accesses
system.cpu.dcache.demand_mshr_miss_rate::total     0.000414                       # mshr miss rate for demand accesses
system.cpu.dcache.overall_mshr_miss_rate::.switch_cpus.data     0.000969                       # mshr miss rate for overall accesses
system.cpu.dcache.overall_mshr_miss_rate::.switch_cpus_1.data     0.001965                       # mshr miss rate for overall accesses
system.cpu.dcache.overall_mshr_miss_rate::total     0.000414                       # mshr miss rate for overall accesses
system.cpu.dcache.demand_avg_mshr_miss_latency::.switch_cpus.data 41805.210597                       # average overall mshr miss latency
system.cpu.dcache.demand_avg_mshr_miss_latency::.switch_cpus_1.data 59293.766626                       # average overall mshr miss latency
system.cpu.dcache.demand_avg_mshr_miss_latency::total 57714.786594                       # average overall mshr miss latency
system.cpu.dcache.overall_avg_mshr_miss_latency::.switch_cpus.data 41805.210597                       # average overall mshr miss latency
system.cpu.dcache.overall_avg_mshr_miss_latency::.switch_cpus_1.data 59293.766626                       # average overall mshr miss latency
system.cpu.dcache.overall_avg_mshr_miss_latency::total 57714.786594                       # average overall mshr miss latency
system.cpu.dcache.replacements                 648094                       # number of replacements
system.cpu.dcache.ReadReq_hits::.cpu.data    222401914                       # number of ReadReq hits
system.cpu.dcache.ReadReq_hits::.switch_cpus.data     11108457                       # number of ReadReq hits
system.cpu.dcache.ReadReq_hits::.switch_cpus_1.data     55967434                       # number of ReadReq hits
system.cpu.dcache.ReadReq_hits::total       289477805                       # number of ReadReq hits
system.cpu.dcache.ReadReq_misses::.cpu.data       267234                       # number of ReadReq misses
system.cpu.dcache.ReadReq_misses::.switch_cpus.data        11302                       # number of ReadReq misses
system.cpu.dcache.ReadReq_misses::.switch_cpus_1.data       461078                       # number of ReadReq misses
system.cpu.dcache.ReadReq_misses::total        739614                       # number of ReadReq misses
system.cpu.dcache.ReadReq_miss_latency::.switch_cpus.data    310826500                       # number of ReadReq miss cycles
system.cpu.dcache.ReadReq_miss_latency::.switch_cpus_1.data  31121337000                       # number of ReadReq miss cycles
system.cpu.dcache.ReadReq_miss_latency::total  31432163500                       # number of ReadReq miss cycles
system.cpu.dcache.ReadReq_accesses::.cpu.data    222669148                       # number of ReadReq accesses(hits+misses)
system.cpu.dcache.ReadReq_accesses::.switch_cpus.data     11119759                       # number of ReadReq accesses(hits+misses)
system.cpu.dcache.ReadReq_accesses::.switch_cpus_1.data     56428512                       # number of ReadReq accesses(hits+misses)
system.cpu.dcache.ReadReq_accesses::total    290217419                       # number of ReadReq accesses(hits+misses)
system.cpu.dcache.ReadReq_miss_rate::.cpu.data     0.001200                       # miss rate for ReadReq accesses
system.cpu.dcache.ReadReq_miss_rate::.switch_cpus.data     0.001016                       # miss rate for ReadReq accesses
system.cpu.dcache.ReadReq_miss_rate::.switch_cpus_1.data     0.008171                       # miss rate for ReadReq accesses
system.cpu.dcache.ReadReq_miss_rate::total     0.002548                       # miss rate for ReadReq accesses
system.cpu.dcache.ReadReq_avg_miss_latency::.switch_cpus.data 27501.902318                       # average ReadReq miss latency
system.cpu.dcache.ReadReq_avg_miss_latency::.switch_cpus_1.data 67496.902910                       # average ReadReq miss latency
system.cpu.dcache.ReadReq_avg_miss_latency::total 42498.064531                       # average ReadReq miss latency
system.cpu.dcache.ReadReq_mshr_hits::.switch_cpus_1.data       320202                       # number of ReadReq MSHR hits
system.cpu.dcache.ReadReq_mshr_hits::total       320202                       # number of ReadReq MSHR hits
system.cpu.dcache.ReadReq_mshr_misses::.switch_cpus.data        11302                       # number of ReadReq MSHR misses
system.cpu.dcache.ReadReq_mshr_misses::.switch_cpus_1.data       140876                       # number of ReadReq MSHR misses
system.cpu.dcache.ReadReq_mshr_misses::total       152178                       # number of ReadReq MSHR misses
system.cpu.dcache.ReadReq_mshr_miss_latency::.switch_cpus.data    299524500                       # number of ReadReq MSHR miss cycles
system.cpu.dcache.ReadReq_mshr_miss_latency::.switch_cpus_1.data   8558274500                       # number of ReadReq MSHR miss cycles
system.cpu.dcache.ReadReq_mshr_miss_latency::total   8857799000                       # number of ReadReq MSHR miss cycles
system.cpu.dcache.ReadReq_mshr_miss_rate::.switch_cpus.data     0.001016                       # mshr miss rate for ReadReq accesses
system.cpu.dcache.ReadReq_mshr_miss_rate::.switch_cpus_1.data     0.002497                       # mshr miss rate for ReadReq accesses
system.cpu.dcache.ReadReq_mshr_miss_rate::total     0.000524                       # mshr miss rate for ReadReq accesses
system.cpu.dcache.ReadReq_avg_mshr_miss_latency::.switch_cpus.data 26501.902318                       # average ReadReq mshr miss latency
system.cpu.dcache.ReadReq_avg_mshr_miss_latency::.switch_cpus_1.data 60750.408160                       # average ReadReq mshr miss latency
system.cpu.dcache.ReadReq_avg_mshr_miss_latency::total 58206.830159                       # average ReadReq mshr miss latency
system.cpu.dcache.WriteReq_hits::.cpu.data    175583754                       # number of WriteReq hits
system.cpu.dcache.WriteReq_hits::.switch_cpus.data      8808750                       # number of WriteReq hits
system.cpu.dcache.WriteReq_hits::.switch_cpus_1.data     42634970                       # number of WriteReq hits
system.cpu.dcache.WriteReq_hits::total      227027474                       # number of WriteReq hits
system.cpu.dcache.WriteReq_misses::.cpu.data       215427                       # number of WriteReq misses
system.cpu.dcache.WriteReq_misses::.switch_cpus.data         8024                       # number of WriteReq misses
system.cpu.dcache.WriteReq_misses::.switch_cpus_1.data        53936                       # number of WriteReq misses
system.cpu.dcache.WriteReq_misses::total       277387                       # number of WriteReq misses
system.cpu.dcache.WriteReq_miss_latency::.switch_cpus.data    516427000                       # number of WriteReq miss cycles
system.cpu.dcache.WriteReq_miss_latency::.switch_cpus_1.data   3041699500                       # number of WriteReq miss cycles
system.cpu.dcache.WriteReq_miss_latency::total   3558126500                       # number of WriteReq miss cycles
system.cpu.dcache.WriteReq_accesses::.cpu.data    175799181                       # number of WriteReq accesses(hits+misses)
system.cpu.dcache.WriteReq_accesses::.switch_cpus.data      8816774                       # number of WriteReq accesses(hits+misses)
system.cpu.dcache.WriteReq_accesses::.switch_cpus_1.data     42688906                       # number of WriteReq accesses(hits+misses)
system.cpu.dcache.WriteReq_accesses::total    227304861                       # number of WriteReq accesses(hits+misses)
system.cpu.dcache.WriteReq_miss_rate::.cpu.data     0.001225                       # miss rate for WriteReq accesses
system.cpu.dcache.WriteReq_miss_rate::.switch_cpus.data     0.000910                       # miss rate for WriteReq accesses
system.cpu.dcache.WriteReq_miss_rate::.switch_cpus_1.data     0.001263                       # miss rate for WriteReq accesses
system.cpu.dcache.WriteReq_miss_rate::total     0.001220                       # miss rate for WriteReq accesses
system.cpu.dcache.WriteReq_avg_miss_latency::.switch_cpus.data 64360.294118                       # average WriteReq miss latency
system.cpu.dcache.WriteReq_avg_miss_latency::.switch_cpus_1.data 56394.606571                       # average WriteReq miss latency
system.cpu.dcache.WriteReq_avg_miss_latency::total 12827.300847                       # average WriteReq miss latency
system.cpu.dcache.WriteReq_mshr_hits::.switch_cpus_1.data           86                       # number of WriteReq MSHR hits
system.cpu.dcache.WriteReq_mshr_hits::total           86                       # number of WriteReq MSHR hits
system.cpu.dcache.WriteReq_mshr_misses::.switch_cpus.data         8024                       # number of WriteReq MSHR misses
system.cpu.dcache.WriteReq_mshr_misses::.switch_cpus_1.data        53850                       # number of WriteReq MSHR misses
system.cpu.dcache.WriteReq_mshr_misses::total        61874                       # number of WriteReq MSHR misses
system.cpu.dcache.WriteReq_mshr_miss_latency::.switch_cpus.data    508403000                       # number of WriteReq MSHR miss cycles
system.cpu.dcache.WriteReq_mshr_miss_latency::.switch_cpus_1.data   2987763500                       # number of WriteReq MSHR miss cycles
system.cpu.dcache.WriteReq_mshr_miss_latency::total   3496166500                       # number of WriteReq MSHR miss cycles
system.cpu.dcache.WriteReq_mshr_miss_rate::.switch_cpus.data     0.000910                       # mshr miss rate for WriteReq accesses
system.cpu.dcache.WriteReq_mshr_miss_rate::.switch_cpus_1.data     0.001261                       # mshr miss rate for WriteReq accesses
system.cpu.dcache.WriteReq_mshr_miss_rate::total     0.000272                       # mshr miss rate for WriteReq accesses
system.cpu.dcache.WriteReq_avg_mshr_miss_latency::.switch_cpus.data 63360.294118                       # average WriteReq mshr miss latency
system.cpu.dcache.WriteReq_avg_mshr_miss_latency::.switch_cpus_1.data 55483.073352                       # average WriteReq mshr miss latency
system.cpu.dcache.WriteReq_avg_mshr_miss_latency::total 56504.614216                       # average WriteReq mshr miss latency
system.cpu.dcache.power_state.pwrStateResidencyTicks::UNDEFINED 1348597697000                       # Cumulative time (in ticks) in various power states
system.cpu.dcache.tags.tagsinuse           511.994559                       # Cycle average of tags in use
system.cpu.dcache.tags.total_refs           517214427                       # Total number of references to valid blocks.
system.cpu.dcache.tags.sampled_refs            648606                       # Sample count of references to valid blocks.
system.cpu.dcache.tags.avg_refs            797.424672                       # Average number of references to valid blocks.
system.cpu.dcache.tags.warmup_cycle              1500                       # Cycle when the warmup percentage was hit.
system.cpu.dcache.tags.occ_blocks::.cpu.data   455.552726                       # Average occupied blocks per requestor
system.cpu.dcache.tags.occ_blocks::.switch_cpus.data    27.279516                       # Average occupied blocks per requestor
system.cpu.dcache.tags.occ_blocks::.switch_cpus_1.data    29.162317                       # Average occupied blocks per requestor
system.cpu.dcache.tags.occ_percent::.cpu.data     0.889751                       # Average percentage of cache occupancy
system.cpu.dcache.tags.occ_percent::.switch_cpus.data     0.053280                       # Average percentage of cache occupancy
system.cpu.dcache.tags.occ_percent::.switch_cpus_1.data     0.056958                       # Average percentage of cache occupancy
system.cpu.dcache.tags.occ_percent::total     0.999989                       # Average percentage of cache occupancy
system.cpu.dcache.tags.occ_task_id_blocks::1024          512                       # Occupied blocks per task id
system.cpu.dcache.tags.age_task_id_blocks_1024::0           34                       # Occupied blocks per task id
system.cpu.dcache.tags.age_task_id_blocks_1024::1          337                       # Occupied blocks per task id
system.cpu.dcache.tags.age_task_id_blocks_1024::2          120                       # Occupied blocks per task id
system.cpu.dcache.tags.age_task_id_blocks_1024::3           19                       # Occupied blocks per task id
system.cpu.dcache.tags.age_task_id_blocks_1024::4            2                       # Occupied blocks per task id
system.cpu.dcache.tags.occ_task_id_percent::1024            1                       # Percentage of cache occupancy per task id
system.cpu.dcache.tags.tag_accesses        2070737726                       # Number of tag accesses
system.cpu.dcache.tags.data_accesses       2070737726                       # Number of data accesses
system.cpu.dcache.tags.power_state.pwrStateResidencyTicks::UNDEFINED 1348597697000                       # Cumulative time (in ticks) in various power states
system.cpu.power_state.numTransitions               2                       # Number of power state transitions
system.cpu.power_state.pwrStateResidencyTicks::ON 1169538804500                       # Cumulative time (in ticks) in various power states
system.cpu.power_state.pwrStateResidencyTicks::OFF 179058892500                       # Cumulative time (in ticks) in various power states

---------- End Simulation Statistics   ----------
