
---------- Begin Simulation Statistics ----------
final_tick                               1352571949500                       # Number of ticks from beginning of simulation (restored from checkpoints and never reset)
host_inst_rate                                 306027                       # Simulator instruction rate (inst/s)
host_mem_usage                                4541496                       # Number of bytes of host memory used
host_op_rate                                   518505                       # Simulator op (including micro ops) rate (op/s)
host_seconds                                  4247.99                       # Real time elapsed on the host
host_tick_rate                               50392394                       # Simulator tick rate (ticks/s)
sim_freq                                 1000000000000                       # Frequency of simulated ticks
sim_insts                                  1300000002                       # Number of instructions simulated
sim_ops                                    2202605322                       # Number of ops (including micro ops) simulated
sim_seconds                                  0.214066                       # Number of seconds simulated
sim_ticks                                214066351500                       # Number of ticks simulated
system.cpu.committedInsts                           0                       # Number of instructions committed
system.cpu.committedOps                             0                       # Number of ops (including micro ops) committed
system.cpu.dtb.rdAccesses                           0                       # TLB accesses on read requests
system.cpu.dtb.rdMisses                             0                       # TLB misses on read requests
system.cpu.dtb.wrAccesses                           0                       # TLB accesses on write requests
system.cpu.dtb.wrMisses                             0                       # TLB misses on write requests
system.cpu.idle_fraction                            0                       # Percentage of idle cycles
system.cpu.itb.rdAccesses                           0                       # TLB accesses on read requests
system.cpu.itb.rdMisses                             0                       # TLB misses on read requests
system.cpu.itb.wrAccesses                           0                       # TLB accesses on write requests
system.cpu.itb.wrMisses                             0                       # TLB misses on write requests
system.cpu.not_idle_fraction                        1                       # Percentage of non-idle cycles
system.cpu.numCycles                                0                       # number of cpu cycles simulated
system.cpu.numWorkItemsCompleted                    0                       # number of work items this cpu completed
system.cpu.numWorkItemsStarted                      0                       # number of work items this cpu started
system.cpu.num_busy_cycles                          0                       # Number of busy cycles
system.cpu.num_conditional_control_insts            0                       # number of instructions that are conditional controls
system.cpu.num_fp_alu_accesses                      0                       # Number of float alu accesses
system.cpu.num_fp_insts                             0                       # number of float instructions
system.cpu.num_fp_register_reads                    0                       # number of times the floating registers were read
system.cpu.num_fp_register_writes                   0                       # number of times the floating registers were written
system.cpu.num_func_calls                           0                       # number of times a function call or return occured
system.cpu.num_idle_cycles                          0                       # Number of idle cycles
system.cpu.num_int_alu_accesses                     0                       # Number of integer alu accesses
system.cpu.num_int_insts                            0                       # number of integer instructions
system.cpu.num_int_register_reads                   0                       # number of times the integer registers were read
system.cpu.num_int_register_writes                  0                       # number of times the integer registers were written
system.cpu.num_load_insts                           0                       # Number of load instructions
system.cpu.num_mem_refs                             0                       # number of memory refs
system.cpu.num_store_insts                          0                       # Number of store instructions
system.cpu.num_vec_alu_accesses                     0                       # Number of vector alu accesses
system.cpu.num_vec_insts                            0                       # number of vector instructions
system.cpu.num_vec_register_reads                   0                       # number of times the vector registers were read
system.cpu.num_vec_register_writes                  0                       # number of times the vector registers were written
system.cpu.op_class::No_OpClass                     0                       # Class of executed instruction
system.cpu.op_class::IntAlu                         0                       # Class of executed instruction
system.cpu.op_class::IntMult                        0                       # Class of executed instruction
system.cpu.op_class::IntDiv                         0                       # Class of executed instruction
system.cpu.op_class::FloatAdd                       0                       # Class of executed instruction
system.cpu.op_class::FloatCmp                       0                       # Class of executed instruction
system.cpu.op_class::FloatCvt                       0                       # Class of executed instruction
system.cpu.op_class::FloatMult                      0                       # Class of executed instruction
system.cpu.op_class::FloatMultAcc                   0                       # Class of executed instruction
system.cpu.op_class::FloatDiv                       0                       # Class of executed instruction
system.cpu.op_class::FloatMisc                      0                       # Class of executed instruction
system.cpu.op_class::FloatSqrt                      0                       # Class of executed instruction
system.cpu.op_class::SimdAdd                        0                       # Class of executed instruction
system.cpu.op_class::SimdAddAcc                     0                       # Class of executed instruction
system.cpu.op_class::SimdAlu                        0                       # Class of executed instruction
system.cpu.op_class::SimdCmp                        0                       # Class of executed instruction
system.cpu.op_class::SimdCvt                        0                       # Class of executed instruction
system.cpu.op_class::SimdMisc                       0                       # Class of executed instruction
system.cpu.op_class::SimdMult                       0                       # Class of executed instruction
system.cpu.op_class::SimdMultAcc                    0                       # Class of executed instruction
system.cpu.op_class::SimdShift                      0                       # Class of executed instruction
system.cpu.op_class::SimdShiftAcc                   0                       # Class of executed instruction
system.cpu.op_class::SimdDiv                        0                       # Class of executed instruction
system.cpu.op_class::SimdSqrt                       0                       # Class of executed instruction
system.cpu.op_class::SimdFloatAdd                   0                       # Class of executed instruction
system.cpu.op_class::SimdFloatAlu                   0                       # Class of executed instruction
system.cpu.op_class::SimdFloatCmp                   0                       # Class of executed instruction
system.cpu.op_class::SimdFloatCvt                   0                       # Class of executed instruction
system.cpu.op_class::SimdFloatDiv                   0                       # Class of executed instruction
system.cpu.op_class::SimdFloatMisc                  0                       # Class of executed instruction
system.cpu.op_class::SimdFloatMult                  0                       # Class of executed instruction
system.cpu.op_class::SimdFloatMultAcc               0                       # Class of executed instruction
system.cpu.op_class::SimdFloatSqrt                  0                       # Class of executed instruction
system.cpu.op_class::SimdReduceAdd                  0                       # Class of executed instruction
system.cpu.op_class::SimdReduceAlu                  0                       # Class of executed instruction
system.cpu.op_class::SimdReduceCmp                  0                       # Class of executed instruction
system.cpu.op_class::SimdFloatReduceAdd             0                       # Class of executed instruction
system.cpu.op_class::SimdFloatReduceCmp             0                       # Class of executed instruction
system.cpu.op_class::SimdAes                        0                       # Class of executed instruction
system.cpu.op_class::SimdAesMix                     0                       # Class of executed instruction
system.cpu.op_class::SimdSha1Hash                   0                       # Class of executed instruction
system.cpu.op_class::SimdSha1Hash2                  0                       # Class of executed instruction
system.cpu.op_class::SimdSha256Hash                 0                       # Class of executed instruction
system.cpu.op_class::SimdSha256Hash2                0                       # Class of executed instruction
system.cpu.op_class::SimdShaSigma2                  0                       # Class of executed instruction
system.cpu.op_class::SimdShaSigma3                  0                       # Class of executed instruction
system.cpu.op_class::SimdPredAlu                    0                       # Class of executed instruction
system.cpu.op_class::MemRead                        0                       # Class of executed instruction
system.cpu.op_class::MemWrite                       0                       # Class of executed instruction
system.cpu.op_class::FloatMemRead                   0                       # Class of executed instruction
system.cpu.op_class::FloatMemWrite                  0                       # Class of executed instruction
system.cpu.op_class::IprAccess                      0                       # Class of executed instruction
system.cpu.op_class::InstPrefetch                   0                       # Class of executed instruction
system.cpu.op_class::total                          0                       # Class of executed instruction
system.cpu.workload.numSyscalls                     0                       # Number of system calls
system.membus.snoop_filter.hit_multi_requests            0                       # Number of requests hitting in the snoop filter with multiple (>1) holders of the requested data.
system.membus.snoop_filter.hit_multi_snoops            0                       # Number of snoops hitting in the snoop filter with multiple (>1) holders of the requested data.
system.membus.snoop_filter.hit_single_requests       605158                       # Number of requests hitting in the snoop filter with a single holder of the requested data.
system.membus.snoop_filter.hit_single_snoops            0                       # Number of snoops hitting in the snoop filter with a single holder of the requested data.
system.membus.snoop_filter.tot_requests       1210249                       # Total number of requests made to the snoop filter.
system.membus.snoop_filter.tot_snoops               0                       # Total number of snoops made to the snoop filter.
system.switch_cpus.committedInsts                   0                       # Number of instructions committed
system.switch_cpus.committedOps                     0                       # Number of ops (including micro ops) committed
system.switch_cpus.dtb.rdAccesses                   0                       # TLB accesses on read requests
system.switch_cpus.dtb.rdMisses                     0                       # TLB misses on read requests
system.switch_cpus.dtb.wrAccesses                   0                       # TLB accesses on write requests
system.switch_cpus.dtb.wrMisses                     0                       # TLB misses on write requests
system.switch_cpus.idle_fraction                    0                       # Percentage of idle cycles
system.switch_cpus.itb.rdAccesses                   0                       # TLB accesses on read requests
system.switch_cpus.itb.rdMisses                     0                       # TLB misses on read requests
system.switch_cpus.itb.wrAccesses                   0                       # TLB accesses on write requests
system.switch_cpus.itb.wrMisses                     0                       # TLB misses on write requests
system.switch_cpus.not_idle_fraction                1                       # Percentage of non-idle cycles
system.switch_cpus.numCycles                        0                       # number of cpu cycles simulated
system.switch_cpus.numWorkItemsCompleted            0                       # number of work items this cpu completed
system.switch_cpus.numWorkItemsStarted              0                       # number of work items this cpu started
system.switch_cpus.num_busy_cycles                  0                       # Number of busy cycles
system.switch_cpus.num_conditional_control_insts            0                       # number of instructions that are conditional controls
system.switch_cpus.num_fp_alu_accesses              0                       # Number of float alu accesses
system.switch_cpus.num_fp_insts                     0                       # number of float instructions
system.switch_cpus.num_fp_register_reads            0                       # number of times the floating registers were read
system.switch_cpus.num_fp_register_writes            0                       # number of times the floating registers were written
system.switch_cpus.num_func_calls                   0                       # number of times a function call or return occured
system.switch_cpus.num_idle_cycles                  0                       # Number of idle cycles
system.switch_cpus.num_int_alu_accesses             0                       # Number of integer alu accesses
system.switch_cpus.num_int_insts                    0                       # number of integer instructions
system.switch_cpus.num_int_register_reads            0                       # number of times the integer registers were read
system.switch_cpus.num_int_register_writes            0                       # number of times the integer registers were written
system.switch_cpus.num_load_insts                   0                       # Number of load instructions
system.switch_cpus.num_mem_refs                     0                       # number of memory refs
system.switch_cpus.num_store_insts                  0                       # Number of store instructions
system.switch_cpus.num_vec_alu_accesses             0                       # Number of vector alu accesses
system.switch_cpus.num_vec_insts                    0                       # number of vector instructions
system.switch_cpus.num_vec_register_reads            0                       # number of times the vector registers were read
system.switch_cpus.num_vec_register_writes            0                       # number of times the vector registers were written
system.switch_cpus.op_class::No_OpClass             0                       # Class of executed instruction
system.switch_cpus.op_class::IntAlu                 0                       # Class of executed instruction
system.switch_cpus.op_class::IntMult                0                       # Class of executed instruction
system.switch_cpus.op_class::IntDiv                 0                       # Class of executed instruction
system.switch_cpus.op_class::FloatAdd               0                       # Class of executed instruction
system.switch_cpus.op_class::FloatCmp               0                       # Class of executed instruction
system.switch_cpus.op_class::FloatCvt               0                       # Class of executed instruction
system.switch_cpus.op_class::FloatMult              0                       # Class of executed instruction
system.switch_cpus.op_class::FloatMultAcc            0                       # Class of executed instruction
system.switch_cpus.op_class::FloatDiv               0                       # Class of executed instruction
system.switch_cpus.op_class::FloatMisc              0                       # Class of executed instruction
system.switch_cpus.op_class::FloatSqrt              0                       # Class of executed instruction
system.switch_cpus.op_class::SimdAdd                0                       # Class of executed instruction
system.switch_cpus.op_class::SimdAddAcc             0                       # Class of executed instruction
system.switch_cpus.op_class::SimdAlu                0                       # Class of executed instruction
system.switch_cpus.op_class::SimdCmp                0                       # Class of executed instruction
system.switch_cpus.op_class::SimdCvt                0                       # Class of executed instruction
system.switch_cpus.op_class::SimdMisc               0                       # Class of executed instruction
system.switch_cpus.op_class::SimdMult               0                       # Class of executed instruction
system.switch_cpus.op_class::SimdMultAcc            0                       # Class of executed instruction
system.switch_cpus.op_class::SimdShift              0                       # Class of executed instruction
system.switch_cpus.op_class::SimdShiftAcc            0                       # Class of executed instruction
system.switch_cpus.op_class::SimdDiv                0                       # Class of executed instruction
system.switch_cpus.op_class::SimdSqrt               0                       # Class of executed instruction
system.switch_cpus.op_class::SimdFloatAdd            0                       # Class of executed instruction
system.switch_cpus.op_class::SimdFloatAlu            0                       # Class of executed instruction
system.switch_cpus.op_class::SimdFloatCmp            0                       # Class of executed instruction
system.switch_cpus.op_class::SimdFloatCvt            0                       # Class of executed instruction
system.switch_cpus.op_class::SimdFloatDiv            0                       # Class of executed instruction
system.switch_cpus.op_class::SimdFloatMisc            0                       # Class of executed instruction
system.switch_cpus.op_class::SimdFloatMult            0                       # Class of executed instruction
system.switch_cpus.op_class::SimdFloatMultAcc            0                       # Class of executed instruction
system.switch_cpus.op_class::SimdFloatSqrt            0                       # Class of executed instruction
system.switch_cpus.op_class::SimdReduceAdd            0                       # Class of executed instruction
system.switch_cpus.op_class::SimdReduceAlu            0                       # Class of executed instruction
system.switch_cpus.op_class::SimdReduceCmp            0                       # Class of executed instruction
system.switch_cpus.op_class::SimdFloatReduceAdd            0                       # Class of executed instruction
system.switch_cpus.op_class::SimdFloatReduceCmp            0                       # Class of executed instruction
system.switch_cpus.op_class::SimdAes                0                       # Class of executed instruction
system.switch_cpus.op_class::SimdAesMix             0                       # Class of executed instruction
system.switch_cpus.op_class::SimdSha1Hash            0                       # Class of executed instruction
system.switch_cpus.op_class::SimdSha1Hash2            0                       # Class of executed instruction
system.switch_cpus.op_class::SimdSha256Hash            0                       # Class of executed instruction
system.switch_cpus.op_class::SimdSha256Hash2            0                       # Class of executed instruction
system.switch_cpus.op_class::SimdShaSigma2            0                       # Class of executed instruction
system.switch_cpus.op_class::SimdShaSigma3            0                       # Class of executed instruction
system.switch_cpus.op_class::SimdPredAlu            0                       # Class of executed instruction
system.switch_cpus.op_class::MemRead                0                       # Class of executed instruction
system.switch_cpus.op_class::MemWrite               0                       # Class of executed instruction
system.switch_cpus.op_class::FloatMemRead            0                       # Class of executed instruction
system.switch_cpus.op_class::FloatMemWrite            0                       # Class of executed instruction
system.switch_cpus.op_class::IprAccess              0                       # Class of executed instruction
system.switch_cpus.op_class::InstPrefetch            0                       # Class of executed instruction
system.switch_cpus.op_class::total                  0                       # Class of executed instruction
system.switch_cpus_1.branchPred.BTBCorrect            0                       # Number of correct BTB predictions (this stat may not work properly.
system.switch_cpus_1.branchPred.BTBHitPct          nan                       # BTB Hit Percentage
system.switch_cpus_1.branchPred.BTBHits             0                       # Number of BTB hits
system.switch_cpus_1.branchPred.BTBLookups            0                       # Number of BTB lookups
system.switch_cpus_1.branchPred.RASInCorrect           42                       # Number of incorrect RAS predictions.
system.switch_cpus_1.branchPred.condIncorrect      8306844                       # Number of conditional branches incorrect
system.switch_cpus_1.branchPred.condPredicted     85271556                       # Number of conditional branches predicted
system.switch_cpus_1.branchPred.indirectHits     29698912                       # Number of indirect target hits.
system.switch_cpus_1.branchPred.indirectLookups     51381010                       # Number of indirect predictor lookups.
system.switch_cpus_1.branchPred.indirectMisses     21682098                       # Number of indirect misses.
system.switch_cpus_1.branchPred.lookups      92718082                       # Number of BP lookups
system.switch_cpus_1.branchPred.usedRAS       2633248                       # Number of times the RAS was used to get a target.
system.switch_cpus_1.branchPredindirectMispredicted      4803710                       # Number of mispredicted indirect branches.
system.switch_cpus_1.cc_regfile_reads       260272675                       # number of cc regfile reads
system.switch_cpus_1.cc_regfile_writes      227058709                       # number of cc regfile writes
system.switch_cpus_1.commit.amos                    0                       # Number of atomic instructions committed
system.switch_cpus_1.commit.branchMispredicts      8307132                       # The number of times a branch was mispredicted
system.switch_cpus_1.commit.branches         39490398                       # Number of branches committed
system.switch_cpus_1.commit.bw_lim_events     23235729                       # number cycles where commit BW limit reached
system.switch_cpus_1.commit.commitSquashedInsts    335308016                       # The number of squashed insts skipped by commit
system.switch_cpus_1.commit.committedInsts    250000000                       # Number of instructions committed
system.switch_cpus_1.commit.committedOps    421666923                       # Number of ops (including micro ops) committed
system.switch_cpus_1.commit.committed_per_cycle::samples    378386937                       # Number of insts commited each cycle
system.switch_cpus_1.commit.committed_per_cycle::mean     1.114380                       # Number of insts commited each cycle
system.switch_cpus_1.commit.committed_per_cycle::stdev     2.169024                       # Number of insts commited each cycle
system.switch_cpus_1.commit.committed_per_cycle::underflows            0      0.00%      0.00% # Number of insts commited each cycle
system.switch_cpus_1.commit.committed_per_cycle::0    246693372     65.20%     65.20% # Number of insts commited each cycle
system.switch_cpus_1.commit.committed_per_cycle::1     53775454     14.21%     79.41% # Number of insts commited each cycle
system.switch_cpus_1.commit.committed_per_cycle::2     17292786      4.57%     83.98% # Number of insts commited each cycle
system.switch_cpus_1.commit.committed_per_cycle::3     19041435      5.03%     89.01% # Number of insts commited each cycle
system.switch_cpus_1.commit.committed_per_cycle::4      9928291      2.62%     91.63% # Number of insts commited each cycle
system.switch_cpus_1.commit.committed_per_cycle::5      2941745      0.78%     92.41% # Number of insts commited each cycle
system.switch_cpus_1.commit.committed_per_cycle::6      2473004      0.65%     93.07% # Number of insts commited each cycle
system.switch_cpus_1.commit.committed_per_cycle::7      3005121      0.79%     93.86% # Number of insts commited each cycle
system.switch_cpus_1.commit.committed_per_cycle::8     23235729      6.14%    100.00% # Number of insts commited each cycle
system.switch_cpus_1.commit.committed_per_cycle::overflows            0      0.00%    100.00% # Number of insts commited each cycle
system.switch_cpus_1.commit.committed_per_cycle::min_value            0                       # Number of insts commited each cycle
system.switch_cpus_1.commit.committed_per_cycle::max_value            8                       # Number of insts commited each cycle
system.switch_cpus_1.commit.committed_per_cycle::total    378386937                       # Number of insts commited each cycle
system.switch_cpus_1.commit.fp_insts                0                       # Number of committed floating point instructions.
system.switch_cpus_1.commit.function_calls      1582586                       # Number of function calls committed.
system.switch_cpus_1.commit.int_insts       421288661                       # Number of committed integer instructions.
system.switch_cpus_1.commit.loads            79739106                       # Number of loads committed
system.switch_cpus_1.commit.membars                 0                       # Number of memory barriers committed
system.switch_cpus_1.commit.op_class_0::No_OpClass       378161      0.09%      0.09% # Class of committed instruction
system.switch_cpus_1.commit.op_class_0::IntAlu    318830200     75.61%     75.70% # Class of committed instruction
system.switch_cpus_1.commit.op_class_0::IntMult           65      0.00%     75.70% # Class of committed instruction
system.switch_cpus_1.commit.op_class_0::IntDiv          135      0.00%     75.70% # Class of committed instruction
system.switch_cpus_1.commit.op_class_0::FloatAdd            0      0.00%     75.70% # Class of committed instruction
system.switch_cpus_1.commit.op_class_0::FloatCmp            0      0.00%     75.70% # Class of committed instruction
system.switch_cpus_1.commit.op_class_0::FloatCvt            0      0.00%     75.70% # Class of committed instruction
system.switch_cpus_1.commit.op_class_0::FloatMult            0      0.00%     75.70% # Class of committed instruction
system.switch_cpus_1.commit.op_class_0::FloatMultAcc            0      0.00%     75.70% # Class of committed instruction
system.switch_cpus_1.commit.op_class_0::FloatDiv            0      0.00%     75.70% # Class of committed instruction
system.switch_cpus_1.commit.op_class_0::FloatMisc            0      0.00%     75.70% # Class of committed instruction
system.switch_cpus_1.commit.op_class_0::FloatSqrt            0      0.00%     75.70% # Class of committed instruction
system.switch_cpus_1.commit.op_class_0::SimdAdd            0      0.00%     75.70% # Class of committed instruction
system.switch_cpus_1.commit.op_class_0::SimdAddAcc            0      0.00%     75.70% # Class of committed instruction
system.switch_cpus_1.commit.op_class_0::SimdAlu            0      0.00%     75.70% # Class of committed instruction
system.switch_cpus_1.commit.op_class_0::SimdCmp            0      0.00%     75.70% # Class of committed instruction
system.switch_cpus_1.commit.op_class_0::SimdCvt            0      0.00%     75.70% # Class of committed instruction
system.switch_cpus_1.commit.op_class_0::SimdMisc            0      0.00%     75.70% # Class of committed instruction
system.switch_cpus_1.commit.op_class_0::SimdMult            0      0.00%     75.70% # Class of committed instruction
system.switch_cpus_1.commit.op_class_0::SimdMultAcc            0      0.00%     75.70% # Class of committed instruction
system.switch_cpus_1.commit.op_class_0::SimdShift            0      0.00%     75.70% # Class of committed instruction
system.switch_cpus_1.commit.op_class_0::SimdShiftAcc            0      0.00%     75.70% # Class of committed instruction
system.switch_cpus_1.commit.op_class_0::SimdDiv            0      0.00%     75.70% # Class of committed instruction
system.switch_cpus_1.commit.op_class_0::SimdSqrt            0      0.00%     75.70% # Class of committed instruction
system.switch_cpus_1.commit.op_class_0::SimdFloatAdd            0      0.00%     75.70% # Class of committed instruction
system.switch_cpus_1.commit.op_class_0::SimdFloatAlu            0      0.00%     75.70% # Class of committed instruction
system.switch_cpus_1.commit.op_class_0::SimdFloatCmp            0      0.00%     75.70% # Class of committed instruction
system.switch_cpus_1.commit.op_class_0::SimdFloatCvt            0      0.00%     75.70% # Class of committed instruction
system.switch_cpus_1.commit.op_class_0::SimdFloatDiv            0      0.00%     75.70% # Class of committed instruction
system.switch_cpus_1.commit.op_class_0::SimdFloatMisc            0      0.00%     75.70% # Class of committed instruction
system.switch_cpus_1.commit.op_class_0::SimdFloatMult            0      0.00%     75.70% # Class of committed instruction
system.switch_cpus_1.commit.op_class_0::SimdFloatMultAcc            0      0.00%     75.70% # Class of committed instruction
system.switch_cpus_1.commit.op_class_0::SimdFloatSqrt            0      0.00%     75.70% # Class of committed instruction
system.switch_cpus_1.commit.op_class_0::SimdReduceAdd            0      0.00%     75.70% # Class of committed instruction
system.switch_cpus_1.commit.op_class_0::SimdReduceAlu            0      0.00%     75.70% # Class of committed instruction
system.switch_cpus_1.commit.op_class_0::SimdReduceCmp            0      0.00%     75.70% # Class of committed instruction
system.switch_cpus_1.commit.op_class_0::SimdFloatReduceAdd            0      0.00%     75.70% # Class of committed instruction
system.switch_cpus_1.commit.op_class_0::SimdFloatReduceCmp            0      0.00%     75.70% # Class of committed instruction
system.switch_cpus_1.commit.op_class_0::SimdAes            0      0.00%     75.70% # Class of committed instruction
system.switch_cpus_1.commit.op_class_0::SimdAesMix            0      0.00%     75.70% # Class of committed instruction
system.switch_cpus_1.commit.op_class_0::SimdSha1Hash            0      0.00%     75.70% # Class of committed instruction
system.switch_cpus_1.commit.op_class_0::SimdSha1Hash2            0      0.00%     75.70% # Class of committed instruction
system.switch_cpus_1.commit.op_class_0::SimdSha256Hash            0      0.00%     75.70% # Class of committed instruction
system.switch_cpus_1.commit.op_class_0::SimdSha256Hash2            0      0.00%     75.70% # Class of committed instruction
system.switch_cpus_1.commit.op_class_0::SimdShaSigma2            0      0.00%     75.70% # Class of committed instruction
system.switch_cpus_1.commit.op_class_0::SimdShaSigma3            0      0.00%     75.70% # Class of committed instruction
system.switch_cpus_1.commit.op_class_0::SimdPredAlu            0      0.00%     75.70% # Class of committed instruction
system.switch_cpus_1.commit.op_class_0::MemRead     79739106     18.91%     94.61% # Class of committed instruction
system.switch_cpus_1.commit.op_class_0::MemWrite     22719256      5.39%    100.00% # Class of committed instruction
system.switch_cpus_1.commit.op_class_0::FloatMemRead            0      0.00%    100.00% # Class of committed instruction
system.switch_cpus_1.commit.op_class_0::FloatMemWrite            0      0.00%    100.00% # Class of committed instruction
system.switch_cpus_1.commit.op_class_0::IprAccess            0      0.00%    100.00% # Class of committed instruction
system.switch_cpus_1.commit.op_class_0::InstPrefetch            0      0.00%    100.00% # Class of committed instruction
system.switch_cpus_1.commit.op_class_0::total    421666923                       # Class of committed instruction
system.switch_cpus_1.commit.refs            102458362                       # Number of memory references committed
system.switch_cpus_1.commit.swp_count               0                       # Number of s/w prefetches committed
system.switch_cpus_1.commit.vec_insts               0                       # Number of committed Vector instructions.
system.switch_cpus_1.committedInsts         250000000                       # Number of Instructions Simulated
system.switch_cpus_1.committedOps           421666923                       # Number of Ops (including micro ops) Simulated
system.switch_cpus_1.cpi                     1.712531                       # CPI: Cycles Per Instruction
system.switch_cpus_1.cpi_total               1.712531                       # CPI: Total CPI of All Threads
system.switch_cpus_1.decode.BlockedCycles    245627102                       # Number of cycles decode is blocked
system.switch_cpus_1.decode.DecodedInsts    877207204                       # Number of instructions handled by decode
system.switch_cpus_1.decode.IdleCycles       50430073                       # Number of cycles decode is idle
system.switch_cpus_1.decode.RunCycles       100443851                       # Number of cycles decode is running
system.switch_cpus_1.decode.SquashCycles      8331527                       # Number of cycles decode is squashing
system.switch_cpus_1.decode.UnblockCycles     23291662                       # Number of cycles decode is unblocking
system.switch_cpus_1.dtb.rdAccesses         115850689                       # TLB accesses on read requests
system.switch_cpus_1.dtb.rdMisses             1248515                       # TLB misses on read requests
system.switch_cpus_1.dtb.wrAccesses          30133193                       # TLB accesses on write requests
system.switch_cpus_1.dtb.wrMisses              362751                       # TLB misses on write requests
system.switch_cpus_1.fetch.Branches          92718082                       # Number of branches that fetch encountered
system.switch_cpus_1.fetch.CacheLines        64233012                       # Number of cache lines fetched
system.switch_cpus_1.fetch.Cycles           350240096                       # Number of cycles fetch has run and was not squashing or blocked
system.switch_cpus_1.fetch.IcacheSquashes      1891334                       # Number of outstanding Icache misses that were squashed
system.switch_cpus_1.fetch.Insts            580166090                       # Number of instructions fetch has processed
system.switch_cpus_1.fetch.MiscStallCycles          285                       # Number of cycles fetch has spent waiting on interrupts, or bad addresses, or out of MSHRs
system.switch_cpus_1.fetch.PendingTrapStallCycles         5855                       # Number of stall cycles due to pending traps
system.switch_cpus_1.fetch.SquashCycles      16663054                       # Number of cycles fetch has spent squashing
system.switch_cpus_1.fetch.branchRate        0.216564                       # Number of branch fetches per cycle
system.switch_cpus_1.fetch.icacheStallCycles     69546469                       # Number of cycles fetch is stalled on an Icache miss
system.switch_cpus_1.fetch.predictedBranches     32332160                       # Number of branches that fetch has predicted taken
system.switch_cpus_1.fetch.rate              1.355108                       # Number of inst fetches per cycle
system.switch_cpus_1.fetch.rateDist::samples    428124232                       # Number of instructions fetched each cycle (Total)
system.switch_cpus_1.fetch.rateDist::mean     2.246388                       # Number of instructions fetched each cycle (Total)
system.switch_cpus_1.fetch.rateDist::stdev     3.311315                       # Number of instructions fetched each cycle (Total)
system.switch_cpus_1.fetch.rateDist::underflows            0      0.00%      0.00% # Number of instructions fetched each cycle (Total)
system.switch_cpus_1.fetch.rateDist::0      272556944     63.66%     63.66% # Number of instructions fetched each cycle (Total)
system.switch_cpus_1.fetch.rateDist::1        8751026      2.04%     65.71% # Number of instructions fetched each cycle (Total)
system.switch_cpus_1.fetch.rateDist::2       13018005      3.04%     68.75% # Number of instructions fetched each cycle (Total)
system.switch_cpus_1.fetch.rateDist::3        9084323      2.12%     70.87% # Number of instructions fetched each cycle (Total)
system.switch_cpus_1.fetch.rateDist::4        8490534      1.98%     72.85% # Number of instructions fetched each cycle (Total)
system.switch_cpus_1.fetch.rateDist::5       14200237      3.32%     76.17% # Number of instructions fetched each cycle (Total)
system.switch_cpus_1.fetch.rateDist::6        6819761      1.59%     77.76% # Number of instructions fetched each cycle (Total)
system.switch_cpus_1.fetch.rateDist::7        7816106      1.83%     79.59% # Number of instructions fetched each cycle (Total)
system.switch_cpus_1.fetch.rateDist::8       87387296     20.41%    100.00% # Number of instructions fetched each cycle (Total)
system.switch_cpus_1.fetch.rateDist::overflows            0      0.00%    100.00% # Number of instructions fetched each cycle (Total)
system.switch_cpus_1.fetch.rateDist::min_value            0                       # Number of instructions fetched each cycle (Total)
system.switch_cpus_1.fetch.rateDist::max_value            8                       # Number of instructions fetched each cycle (Total)
system.switch_cpus_1.fetch.rateDist::total    428124232                       # Number of instructions fetched each cycle (Total)
system.switch_cpus_1.fp_regfile_reads          122120                       # number of floating regfile reads
system.switch_cpus_1.fp_regfile_writes          78680                       # number of floating regfile writes
system.switch_cpus_1.idleCycles                  8471                       # Total number of cycles that the CPU has spent unscheduled due to idling
system.switch_cpus_1.iew.branchMispredicts      9971707                       # Number of branch mispredicts detected at execute
system.switch_cpus_1.iew.exec_branches       52410036                       # Number of branches executed
system.switch_cpus_1.iew.exec_nop                   0                       # number of nop insts executed
system.switch_cpus_1.iew.exec_rate           1.467981                       # Inst execution rate
system.switch_cpus_1.iew.exec_refs          149156138                       # number of memory reference insts executed
system.switch_cpus_1.iew.exec_stores         30130196                       # Number of stores executed
system.switch_cpus_1.iew.exec_swp                   0                       # number of swp insts executed
system.switch_cpus_1.iew.iewBlockCycles      65363690                       # Number of cycles IEW is blocking
system.switch_cpus_1.iew.iewDispLoadInsts    142549619                       # Number of dispatched load instructions
system.switch_cpus_1.iew.iewDispNonSpecInsts            0                       # Number of dispatched non-speculative instructions
system.switch_cpus_1.iew.iewDispSquashedInsts       715532                       # Number of squashed instructions skipped by dispatch
system.switch_cpus_1.iew.iewDispStoreInsts     44436055                       # Number of dispatched store instructions
system.switch_cpus_1.iew.iewDispatchedInsts    756854427                       # Number of instructions dispatched to IQ
system.switch_cpus_1.iew.iewExecLoadInsts    119025942                       # Number of load instructions executed
system.switch_cpus_1.iew.iewExecSquashedInsts     20259221                       # Number of squashed instructions skipped in execute
system.switch_cpus_1.iew.iewExecutedInsts    628490707                       # Number of executed instructions
system.switch_cpus_1.iew.iewIQFullEvents       633541                       # Number of times the IQ has become full, causing a stall
system.switch_cpus_1.iew.iewIdleCycles              0                       # Number of cycles IEW is idle
system.switch_cpus_1.iew.iewLSQFullEvents     28665237                       # Number of times the LSQ has become full, causing a stall
system.switch_cpus_1.iew.iewSquashCycles      8331527                       # Number of cycles IEW is squashing
system.switch_cpus_1.iew.iewUnblockCycles     29878847                       # Number of cycles IEW is unblocking
system.switch_cpus_1.iew.lsq.thread0.blockedLoads            0                       # Number of blocked loads due to partial load-store forwarding
system.switch_cpus_1.iew.lsq.thread0.cacheBlocked      1003837                       # Number of times an access to memory failed due to the cache being blocked
system.switch_cpus_1.iew.lsq.thread0.forwLoads      8356458                       # Number of loads that had data forwarded from stores
system.switch_cpus_1.iew.lsq.thread0.ignoredResponses        44128                       # Number of memory responses ignored because the instruction is squashed
system.switch_cpus_1.iew.lsq.thread0.invAddrLoads            0                       # Number of loads ignored due to an invalid address
system.switch_cpus_1.iew.lsq.thread0.invAddrSwpfs            0                       # Number of software prefetches ignored due to an invalid address
system.switch_cpus_1.iew.lsq.thread0.memOrderViolation        30757                       # Number of memory ordering violations
system.switch_cpus_1.iew.lsq.thread0.rescheduledLoads        54569                       # Number of loads that were rescheduled
system.switch_cpus_1.iew.lsq.thread0.squashedLoads     62810509                       # Number of loads squashed
system.switch_cpus_1.iew.lsq.thread0.squashedStores     21716798                       # Number of stores squashed
system.switch_cpus_1.iew.memOrderViolationEvents        30757                       # Number of memory order violations
system.switch_cpus_1.iew.predictedNotTakenIncorrect      8915400                       # Number of branches that were predicted not taken incorrectly
system.switch_cpus_1.iew.predictedTakenIncorrect      1056307                       # Number of branches that were predicted taken incorrectly
system.switch_cpus_1.iew.wb_consumers       707127976                       # num instructions consuming a value
system.switch_cpus_1.iew.wb_count           612076106                       # cumulative count of insts written-back
system.switch_cpus_1.iew.wb_fanout           0.666675                       # average fanout of values written-back
system.switch_cpus_1.iew.wb_producers       471424210                       # num instructions producing a value
system.switch_cpus_1.iew.wb_rate             1.429641                       # insts written-back per cycle
system.switch_cpus_1.iew.wb_sent            616102033                       # cumulative count of insts sent to commit
system.switch_cpus_1.int_regfile_reads      980000990                       # number of integer regfile reads
system.switch_cpus_1.int_regfile_writes     531288991                       # number of integer regfile writes
system.switch_cpus_1.ipc                     0.583931                       # IPC: Instructions Per Cycle
system.switch_cpus_1.ipc_total               0.583931                       # IPC: Total IPC of All Threads
system.switch_cpus_1.iq.FU_type_0::No_OpClass      1632082      0.25%      0.25% # Type of FU issued
system.switch_cpus_1.iq.FU_type_0::IntAlu    490233335     75.57%     75.82% # Type of FU issued
system.switch_cpus_1.iq.FU_type_0::IntMult           87      0.00%     75.82% # Type of FU issued
system.switch_cpus_1.iq.FU_type_0::IntDiv          138      0.00%     75.82% # Type of FU issued
system.switch_cpus_1.iq.FU_type_0::FloatAdd            0      0.00%     75.82% # Type of FU issued
system.switch_cpus_1.iq.FU_type_0::FloatCmp            0      0.00%     75.82% # Type of FU issued
system.switch_cpus_1.iq.FU_type_0::FloatCvt         6330      0.00%     75.82% # Type of FU issued
system.switch_cpus_1.iq.FU_type_0::FloatMult            0      0.00%     75.82% # Type of FU issued
system.switch_cpus_1.iq.FU_type_0::FloatMultAcc            0      0.00%     75.82% # Type of FU issued
system.switch_cpus_1.iq.FU_type_0::FloatDiv            0      0.00%     75.82% # Type of FU issued
system.switch_cpus_1.iq.FU_type_0::FloatMisc            0      0.00%     75.82% # Type of FU issued
system.switch_cpus_1.iq.FU_type_0::FloatSqrt            0      0.00%     75.82% # Type of FU issued
system.switch_cpus_1.iq.FU_type_0::SimdAdd            0      0.00%     75.82% # Type of FU issued
system.switch_cpus_1.iq.FU_type_0::SimdAddAcc            0      0.00%     75.82% # Type of FU issued
system.switch_cpus_1.iq.FU_type_0::SimdAlu            0      0.00%     75.82% # Type of FU issued
system.switch_cpus_1.iq.FU_type_0::SimdCmp            0      0.00%     75.82% # Type of FU issued
system.switch_cpus_1.iq.FU_type_0::SimdCvt            0      0.00%     75.82% # Type of FU issued
system.switch_cpus_1.iq.FU_type_0::SimdMisc       105053      0.02%     75.83% # Type of FU issued
system.switch_cpus_1.iq.FU_type_0::SimdMult            0      0.00%     75.83% # Type of FU issued
system.switch_cpus_1.iq.FU_type_0::SimdMultAcc            0      0.00%     75.83% # Type of FU issued
system.switch_cpus_1.iq.FU_type_0::SimdShift            0      0.00%     75.83% # Type of FU issued
system.switch_cpus_1.iq.FU_type_0::SimdShiftAcc            0      0.00%     75.83% # Type of FU issued
system.switch_cpus_1.iq.FU_type_0::SimdDiv            0      0.00%     75.83% # Type of FU issued
system.switch_cpus_1.iq.FU_type_0::SimdSqrt            0      0.00%     75.83% # Type of FU issued
system.switch_cpus_1.iq.FU_type_0::SimdFloatAdd            0      0.00%     75.83% # Type of FU issued
system.switch_cpus_1.iq.FU_type_0::SimdFloatAlu            0      0.00%     75.83% # Type of FU issued
system.switch_cpus_1.iq.FU_type_0::SimdFloatCmp            0      0.00%     75.83% # Type of FU issued
system.switch_cpus_1.iq.FU_type_0::SimdFloatCvt        40103      0.01%     75.84% # Type of FU issued
system.switch_cpus_1.iq.FU_type_0::SimdFloatDiv            0      0.00%     75.84% # Type of FU issued
system.switch_cpus_1.iq.FU_type_0::SimdFloatMisc            0      0.00%     75.84% # Type of FU issued
system.switch_cpus_1.iq.FU_type_0::SimdFloatMult            0      0.00%     75.84% # Type of FU issued
system.switch_cpus_1.iq.FU_type_0::SimdFloatMultAcc            0      0.00%     75.84% # Type of FU issued
system.switch_cpus_1.iq.FU_type_0::SimdFloatSqrt            0      0.00%     75.84% # Type of FU issued
system.switch_cpus_1.iq.FU_type_0::SimdReduceAdd            0      0.00%     75.84% # Type of FU issued
system.switch_cpus_1.iq.FU_type_0::SimdReduceAlu            0      0.00%     75.84% # Type of FU issued
system.switch_cpus_1.iq.FU_type_0::SimdReduceCmp            0      0.00%     75.84% # Type of FU issued
system.switch_cpus_1.iq.FU_type_0::SimdFloatReduceAdd            0      0.00%     75.84% # Type of FU issued
system.switch_cpus_1.iq.FU_type_0::SimdFloatReduceCmp            0      0.00%     75.84% # Type of FU issued
system.switch_cpus_1.iq.FU_type_0::SimdAes            0      0.00%     75.84% # Type of FU issued
system.switch_cpus_1.iq.FU_type_0::SimdAesMix            0      0.00%     75.84% # Type of FU issued
system.switch_cpus_1.iq.FU_type_0::SimdSha1Hash            0      0.00%     75.84% # Type of FU issued
system.switch_cpus_1.iq.FU_type_0::SimdSha1Hash2            0      0.00%     75.84% # Type of FU issued
system.switch_cpus_1.iq.FU_type_0::SimdSha256Hash            0      0.00%     75.84% # Type of FU issued
system.switch_cpus_1.iq.FU_type_0::SimdSha256Hash2            0      0.00%     75.84% # Type of FU issued
system.switch_cpus_1.iq.FU_type_0::SimdShaSigma2            0      0.00%     75.84% # Type of FU issued
system.switch_cpus_1.iq.FU_type_0::SimdShaSigma3            0      0.00%     75.84% # Type of FU issued
system.switch_cpus_1.iq.FU_type_0::SimdPredAlu            0      0.00%     75.84% # Type of FU issued
system.switch_cpus_1.iq.FU_type_0::MemRead    124966650     19.26%     95.10% # Type of FU issued
system.switch_cpus_1.iq.FU_type_0::MemWrite     31766150      4.90%    100.00% # Type of FU issued
system.switch_cpus_1.iq.FU_type_0::FloatMemRead            0      0.00%    100.00% # Type of FU issued
system.switch_cpus_1.iq.FU_type_0::FloatMemWrite            0      0.00%    100.00% # Type of FU issued
system.switch_cpus_1.iq.FU_type_0::IprAccess            0      0.00%    100.00% # Type of FU issued
system.switch_cpus_1.iq.FU_type_0::InstPrefetch            0      0.00%    100.00% # Type of FU issued
system.switch_cpus_1.iq.FU_type_0::total    648749928                       # Type of FU issued
system.switch_cpus_1.iq.fp_alu_accesses        151493                       # Number of floating point alu accesses
system.switch_cpus_1.iq.fp_inst_queue_reads       306715                       # Number of floating instruction queue reads
system.switch_cpus_1.iq.fp_inst_queue_wakeup_accesses        84528                       # Number of floating instruction queue wakeup accesses
system.switch_cpus_1.iq.fp_inst_queue_writes       802428                       # Number of floating instruction queue writes
system.switch_cpus_1.iq.fu_busy_cnt           6396431                       # FU busy when requested
system.switch_cpus_1.iq.fu_busy_rate         0.009860                       # FU busy rate (busy events/executed inst)
system.switch_cpus_1.iq.fu_full::No_OpClass            0      0.00%      0.00% # attempts to use FU when none available
system.switch_cpus_1.iq.fu_full::IntAlu       4537853     70.94%     70.94% # attempts to use FU when none available
system.switch_cpus_1.iq.fu_full::IntMult            0      0.00%     70.94% # attempts to use FU when none available
system.switch_cpus_1.iq.fu_full::IntDiv             0      0.00%     70.94% # attempts to use FU when none available
system.switch_cpus_1.iq.fu_full::FloatAdd            0      0.00%     70.94% # attempts to use FU when none available
system.switch_cpus_1.iq.fu_full::FloatCmp            0      0.00%     70.94% # attempts to use FU when none available
system.switch_cpus_1.iq.fu_full::FloatCvt            7      0.00%     70.94% # attempts to use FU when none available
system.switch_cpus_1.iq.fu_full::FloatMult            0      0.00%     70.94% # attempts to use FU when none available
system.switch_cpus_1.iq.fu_full::FloatMultAcc            0      0.00%     70.94% # attempts to use FU when none available
system.switch_cpus_1.iq.fu_full::FloatDiv            0      0.00%     70.94% # attempts to use FU when none available
system.switch_cpus_1.iq.fu_full::FloatMisc            0      0.00%     70.94% # attempts to use FU when none available
system.switch_cpus_1.iq.fu_full::FloatSqrt            0      0.00%     70.94% # attempts to use FU when none available
system.switch_cpus_1.iq.fu_full::SimdAdd            0      0.00%     70.94% # attempts to use FU when none available
system.switch_cpus_1.iq.fu_full::SimdAddAcc            0      0.00%     70.94% # attempts to use FU when none available
system.switch_cpus_1.iq.fu_full::SimdAlu            0      0.00%     70.94% # attempts to use FU when none available
system.switch_cpus_1.iq.fu_full::SimdCmp            0      0.00%     70.94% # attempts to use FU when none available
system.switch_cpus_1.iq.fu_full::SimdCvt            0      0.00%     70.94% # attempts to use FU when none available
system.switch_cpus_1.iq.fu_full::SimdMisc            0      0.00%     70.94% # attempts to use FU when none available
system.switch_cpus_1.iq.fu_full::SimdMult            0      0.00%     70.94% # attempts to use FU when none available
system.switch_cpus_1.iq.fu_full::SimdMultAcc            0      0.00%     70.94% # attempts to use FU when none available
system.switch_cpus_1.iq.fu_full::SimdShift            0      0.00%     70.94% # attempts to use FU when none available
system.switch_cpus_1.iq.fu_full::SimdShiftAcc            0      0.00%     70.94% # attempts to use FU when none available
system.switch_cpus_1.iq.fu_full::SimdDiv            0      0.00%     70.94% # attempts to use FU when none available
system.switch_cpus_1.iq.fu_full::SimdSqrt            0      0.00%     70.94% # attempts to use FU when none available
system.switch_cpus_1.iq.fu_full::SimdFloatAdd            0      0.00%     70.94% # attempts to use FU when none available
system.switch_cpus_1.iq.fu_full::SimdFloatAlu            0      0.00%     70.94% # attempts to use FU when none available
system.switch_cpus_1.iq.fu_full::SimdFloatCmp            0      0.00%     70.94% # attempts to use FU when none available
system.switch_cpus_1.iq.fu_full::SimdFloatCvt            0      0.00%     70.94% # attempts to use FU when none available
system.switch_cpus_1.iq.fu_full::SimdFloatDiv            0      0.00%     70.94% # attempts to use FU when none available
system.switch_cpus_1.iq.fu_full::SimdFloatMisc            0      0.00%     70.94% # attempts to use FU when none available
system.switch_cpus_1.iq.fu_full::SimdFloatMult            0      0.00%     70.94% # attempts to use FU when none available
system.switch_cpus_1.iq.fu_full::SimdFloatMultAcc            0      0.00%     70.94% # attempts to use FU when none available
system.switch_cpus_1.iq.fu_full::SimdFloatSqrt            0      0.00%     70.94% # attempts to use FU when none available
system.switch_cpus_1.iq.fu_full::SimdReduceAdd            0      0.00%     70.94% # attempts to use FU when none available
system.switch_cpus_1.iq.fu_full::SimdReduceAlu            0      0.00%     70.94% # attempts to use FU when none available
system.switch_cpus_1.iq.fu_full::SimdReduceCmp            0      0.00%     70.94% # attempts to use FU when none available
system.switch_cpus_1.iq.fu_full::SimdFloatReduceAdd            0      0.00%     70.94% # attempts to use FU when none available
system.switch_cpus_1.iq.fu_full::SimdFloatReduceCmp            0      0.00%     70.94% # attempts to use FU when none available
system.switch_cpus_1.iq.fu_full::SimdAes            0      0.00%     70.94% # attempts to use FU when none available
system.switch_cpus_1.iq.fu_full::SimdAesMix            0      0.00%     70.94% # attempts to use FU when none available
system.switch_cpus_1.iq.fu_full::SimdSha1Hash            0      0.00%     70.94% # attempts to use FU when none available
system.switch_cpus_1.iq.fu_full::SimdSha1Hash2            0      0.00%     70.94% # attempts to use FU when none available
system.switch_cpus_1.iq.fu_full::SimdSha256Hash            0      0.00%     70.94% # attempts to use FU when none available
system.switch_cpus_1.iq.fu_full::SimdSha256Hash2            0      0.00%     70.94% # attempts to use FU when none available
system.switch_cpus_1.iq.fu_full::SimdShaSigma2            0      0.00%     70.94% # attempts to use FU when none available
system.switch_cpus_1.iq.fu_full::SimdShaSigma3            0      0.00%     70.94% # attempts to use FU when none available
system.switch_cpus_1.iq.fu_full::SimdPredAlu            0      0.00%     70.94% # attempts to use FU when none available
system.switch_cpus_1.iq.fu_full::MemRead      1827595     28.57%     99.52% # attempts to use FU when none available
system.switch_cpus_1.iq.fu_full::MemWrite        30976      0.48%    100.00% # attempts to use FU when none available
system.switch_cpus_1.iq.fu_full::FloatMemRead            0      0.00%    100.00% # attempts to use FU when none available
system.switch_cpus_1.iq.fu_full::FloatMemWrite            0      0.00%    100.00% # attempts to use FU when none available
system.switch_cpus_1.iq.fu_full::IprAccess            0      0.00%    100.00% # attempts to use FU when none available
system.switch_cpus_1.iq.fu_full::InstPrefetch            0      0.00%    100.00% # attempts to use FU when none available
system.switch_cpus_1.iq.int_alu_accesses    653362784                       # Number of integer alu accesses
system.switch_cpus_1.iq.int_inst_queue_reads   1733217324                       # Number of integer instruction queue reads
system.switch_cpus_1.iq.int_inst_queue_wakeup_accesses    611991578                       # Number of integer instruction queue wakeup accesses
system.switch_cpus_1.iq.int_inst_queue_writes   1091268365                       # Number of integer instruction queue writes
system.switch_cpus_1.iq.iqInstsAdded        756854427                       # Number of instructions added to the IQ (excludes non-spec)
system.switch_cpus_1.iq.iqInstsIssued       648749928                       # Number of instructions issued
system.switch_cpus_1.iq.iqSquashedInstsExamined    335187490                       # Number of squashed instructions iterated over during squash; mainly for profiling
system.switch_cpus_1.iq.iqSquashedInstsIssued      1503520                       # Number of squashed instructions issued
system.switch_cpus_1.iq.iqSquashedOperandsExamined    480692588                       # Number of squashed operands that are examined and possibly removed from graph
system.switch_cpus_1.iq.issued_per_cycle::samples    428124232                       # Number of insts issued each cycle
system.switch_cpus_1.iq.issued_per_cycle::mean     1.515331                       # Number of insts issued each cycle
system.switch_cpus_1.iq.issued_per_cycle::stdev     2.104446                       # Number of insts issued each cycle
system.switch_cpus_1.iq.issued_per_cycle::underflows            0      0.00%      0.00% # Number of insts issued each cycle
system.switch_cpus_1.iq.issued_per_cycle::0    229942524     53.71%     53.71% # Number of insts issued each cycle
system.switch_cpus_1.iq.issued_per_cycle::1     46887294     10.95%     64.66% # Number of insts issued each cycle
system.switch_cpus_1.iq.issued_per_cycle::2     39325646      9.19%     73.85% # Number of insts issued each cycle
system.switch_cpus_1.iq.issued_per_cycle::3     29761941      6.95%     80.80% # Number of insts issued each cycle
system.switch_cpus_1.iq.issued_per_cycle::4     27330864      6.38%     87.18% # Number of insts issued each cycle
system.switch_cpus_1.iq.issued_per_cycle::5     22951398      5.36%     92.54% # Number of insts issued each cycle
system.switch_cpus_1.iq.issued_per_cycle::6     18037407      4.21%     96.76% # Number of insts issued each cycle
system.switch_cpus_1.iq.issued_per_cycle::7      9476633      2.21%     98.97% # Number of insts issued each cycle
system.switch_cpus_1.iq.issued_per_cycle::8      4410525      1.03%    100.00% # Number of insts issued each cycle
system.switch_cpus_1.iq.issued_per_cycle::overflows            0      0.00%    100.00% # Number of insts issued each cycle
system.switch_cpus_1.iq.issued_per_cycle::min_value            0                       # Number of insts issued each cycle
system.switch_cpus_1.iq.issued_per_cycle::max_value            8                       # Number of insts issued each cycle
system.switch_cpus_1.iq.issued_per_cycle::total    428124232                       # Number of insts issued each cycle
system.switch_cpus_1.iq.rate                 1.515301                       # Inst issue rate
system.switch_cpus_1.iq.vec_alu_accesses            0                       # Number of vector alu accesses
system.switch_cpus_1.iq.vec_inst_queue_reads            0                       # Number of vector instruction queue reads
system.switch_cpus_1.iq.vec_inst_queue_wakeup_accesses            0                       # Number of vector instruction queue wakeup accesses
system.switch_cpus_1.iq.vec_inst_queue_writes            0                       # Number of vector instruction queue writes
system.switch_cpus_1.itb.rdAccesses                 0                       # TLB accesses on read requests
system.switch_cpus_1.itb.rdMisses                   0                       # TLB misses on read requests
system.switch_cpus_1.itb.wrAccesses          64233480                       # TLB accesses on write requests
system.switch_cpus_1.itb.wrMisses                 482                       # TLB misses on write requests
system.switch_cpus_1.memDep0.conflictingLoads     21174179                       # Number of conflicting loads.
system.switch_cpus_1.memDep0.conflictingStores     13836951                       # Number of conflicting stores.
system.switch_cpus_1.memDep0.insertedLoads    142549619                       # Number of loads inserted to the mem dependence unit.
system.switch_cpus_1.memDep0.insertedStores     44436055                       # Number of stores inserted to the mem dependence unit.
system.switch_cpus_1.misc_regfile_reads     269023922                       # number of misc regfile reads
system.switch_cpus_1.numCycles              428132703                       # number of cpu cycles simulated
system.switch_cpus_1.numWorkItemsCompleted            0                       # number of work items this cpu completed
system.switch_cpus_1.numWorkItemsStarted            0                       # number of work items this cpu started
system.switch_cpus_1.rename.BlockCycles     146291953                       # Number of cycles rename is blocking
system.switch_cpus_1.rename.CommittedMaps    530265430                       # Number of HB maps that are committed
system.switch_cpus_1.rename.IQFullEvents     33515267                       # Number of times rename has blocked due to IQ full
system.switch_cpus_1.rename.IdleCycles       62447401                       # Number of cycles rename is idle
system.switch_cpus_1.rename.LQFullEvents     14995265                       # Number of times rename has blocked due to LQ full
system.switch_cpus_1.rename.ROBFullEvents      4492527                       # Number of times rename has blocked due to ROB full
system.switch_cpus_1.rename.RenameLookups   2148520152                       # Number of register rename lookups that rename has made
system.switch_cpus_1.rename.RenamedInsts    834079432                       # Number of instructions processed by rename
system.switch_cpus_1.rename.RenamedOperands   1010037676                       # Number of destination operands rename has renamed
system.switch_cpus_1.rename.RunCycles       109564758                       # Number of cycles rename is running
system.switch_cpus_1.rename.SQFullEvents     45972221                       # Number of times rename has blocked due to SQ full
system.switch_cpus_1.rename.SquashCycles      8331527                       # Number of cycles rename is squashing
system.switch_cpus_1.rename.UnblockCycles    101488577                       # Number of cycles rename is unblocking
system.switch_cpus_1.rename.UndoneMaps      479772235                       # Number of HB maps that are undone due to squashing
system.switch_cpus_1.rename.fp_rename_lookups      2237489                       # Number of floating rename lookups
system.switch_cpus_1.rename.int_rename_lookups   1382665072                       # Number of integer rename lookups
system.switch_cpus_1.rename.serializeStallCycles            0                       # count of cycles rename stalled for serializing inst
system.switch_cpus_1.rename.serializingInsts            0                       # count of serializing insts renamed
system.switch_cpus_1.rename.skidInsts       109400233                       # count of insts added to the skid buffer
system.switch_cpus_1.rename.tempSerializingInsts            0                       # count of temporary serializing insts renamed
system.switch_cpus_1.rob.rob_reads         1112126147                       # The number of ROB reads
system.switch_cpus_1.rob.rob_writes        1564392325                       # The number of ROB writes
system.switch_cpus_1.timesIdled                    81                       # Number of times that the entire CPU went into an idle state and unscheduled itself
system.tol2bus.snoop_filter.hit_multi_requests            0                       # Number of requests hitting in the snoop filter with multiple (>1) holders of the requested data.
system.tol2bus.snoop_filter.hit_multi_snoops            0                       # Number of snoops hitting in the snoop filter with multiple (>1) holders of the requested data.
system.tol2bus.snoop_filter.hit_single_requests      4808789                       # Number of requests hitting in the snoop filter with a single holder of the requested data.
system.tol2bus.snoop_filter.hit_single_snoops           97                       # Number of snoops hitting in the snoop filter with a single holder of the requested data.
system.tol2bus.snoop_filter.tot_requests      9455261                       # Total number of requests made to the snoop filter.
system.tol2bus.snoop_filter.tot_snoops             97                       # Total number of snoops made to the snoop filter.
system.tol3bus.snoop_filter.hit_multi_requests            0                       # Number of requests hitting in the snoop filter with multiple (>1) holders of the requested data.
system.tol3bus.snoop_filter.hit_multi_snoops            0                       # Number of snoops hitting in the snoop filter with multiple (>1) holders of the requested data.
system.tol3bus.snoop_filter.hit_single_requests      4119110                       # Number of requests hitting in the snoop filter with a single holder of the requested data.
system.tol3bus.snoop_filter.hit_single_snoops        20574                       # Number of snoops hitting in the snoop filter with a single holder of the requested data.
system.tol3bus.snoop_filter.tot_requests      8205020                       # Total number of requests made to the snoop filter.
system.tol3bus.snoop_filter.tot_snoops          20574                       # Total number of snoops made to the snoop filter.
system.membus.trans_dist::ReadResp             375265                       # Transaction distribution
system.membus.trans_dist::WritebackDirty       300870                       # Transaction distribution
system.membus.trans_dist::CleanEvict           304288                       # Transaction distribution
system.membus.trans_dist::ReadExReq            229826                       # Transaction distribution
system.membus.trans_dist::ReadExResp           229826                       # Transaction distribution
system.membus.trans_dist::ReadSharedReq        375265                       # Transaction distribution
system.membus.pkt_count_system.l3.mem_side::system.mem_ctrls.port      1815340                       # Packet count per connected master and slave (bytes)
system.membus.pkt_count_system.l3.mem_side::total      1815340                       # Packet count per connected master and slave (bytes)
system.membus.pkt_count::total                1815340                       # Packet count per connected master and slave (bytes)
system.membus.pkt_size_system.l3.mem_side::system.mem_ctrls.port     57981504                       # Cumulative packet size per connected master and slave (bytes)
system.membus.pkt_size_system.l3.mem_side::total     57981504                       # Cumulative packet size per connected master and slave (bytes)
system.membus.pkt_size::total                57981504                       # Cumulative packet size per connected master and slave (bytes)
system.membus.snoops                                0                       # Total snoops (count)
system.membus.snoopTraffic                          0                       # Total snoop traffic (bytes)
system.membus.snoop_fanout::samples            605091                       # Request fanout histogram
system.membus.snoop_fanout::mean                    0                       # Request fanout histogram
system.membus.snoop_fanout::stdev                   0                       # Request fanout histogram
system.membus.snoop_fanout::underflows              0      0.00%      0.00% # Request fanout histogram
system.membus.snoop_fanout::0                  605091    100.00%    100.00% # Request fanout histogram
system.membus.snoop_fanout::1                       0      0.00%    100.00% # Request fanout histogram
system.membus.snoop_fanout::overflows               0      0.00%    100.00% # Request fanout histogram
system.membus.snoop_fanout::min_value               0                       # Request fanout histogram
system.membus.snoop_fanout::max_value               0                       # Request fanout histogram
system.membus.snoop_fanout::total              605091                       # Request fanout histogram
system.membus.reqLayer2.occupancy          2581853000                       # Layer occupancy (ticks)
system.membus.reqLayer2.utilization               1.2                       # Layer utilization (%)
system.membus.respLayer1.occupancy         3275373000                       # Layer occupancy (ticks)
system.membus.respLayer1.utilization              1.5                       # Layer utilization (%)
system.membus.power_state.pwrStateResidencyTicks::UNDEFINED 1352571949500                       # Cumulative time (in ticks) in various power states
system.switch_cpus_1.dtb.walker.power_state.pwrStateResidencyTicks::UNDEFINED 1352571949500                       # Cumulative time (in ticks) in various power states
system.switch_cpus_1.itb.walker.power_state.pwrStateResidencyTicks::UNDEFINED 1352571949500                       # Cumulative time (in ticks) in various power states
system.switch_cpus_1.power_state.pwrStateResidencyTicks::OFF 1352571949500                       # Cumulative time (in ticks) in various power states
system.switch_cpus.dtb.walker.power_state.pwrStateResidencyTicks::UNDEFINED 1352571949500                       # Cumulative time (in ticks) in various power states
system.switch_cpus.itb.walker.power_state.pwrStateResidencyTicks::UNDEFINED 1352571949500                       # Cumulative time (in ticks) in various power states
system.switch_cpus.power_state.numTransitions            1                       # Number of power state transitions
system.switch_cpus.power_state.pwrStateResidencyTicks::OFF 1352571949500                       # Cumulative time (in ticks) in various power states
system.tol2bus.trans_dist::ReadResp           3836765                       # Transaction distribution
system.tol2bus.trans_dist::WritebackDirty      1598151                       # Transaction distribution
system.tol2bus.trans_dist::WritebackClean          177                       # Transaction distribution
system.tol2bus.trans_dist::CleanEvict         3695092                       # Transaction distribution
system.tol2bus.trans_dist::UpgradeReq          162317                       # Transaction distribution
system.tol2bus.trans_dist::UpgradeResp         162317                       # Transaction distribution
system.tol2bus.trans_dist::ReadExReq           809707                       # Transaction distribution
system.tol2bus.trans_dist::ReadExResp          809707                       # Transaction distribution
system.tol2bus.trans_dist::ReadCleanReq       3836765                       # Transaction distribution
system.tol2bus.pkt_count_system.cpu.icache.mem_side::system.l2.cpu_side          531                       # Packet count per connected master and slave (bytes)
system.tol2bus.pkt_count_system.cpu.dcache.mem_side::system.l2.cpu_side     14263519                       # Packet count per connected master and slave (bytes)
system.tol2bus.pkt_count::total              14264050                       # Packet count per connected master and slave (bytes)
system.tol2bus.pkt_size_system.cpu.icache.mem_side::system.l2.cpu_side        22656                       # Cumulative packet size per connected master and slave (bytes)
system.tol2bus.pkt_size_system.cpu.dcache.mem_side::system.l2.cpu_side    359564672                       # Cumulative packet size per connected master and slave (bytes)
system.tol2bus.pkt_size::total              359587328                       # Cumulative packet size per connected master and slave (bytes)
system.tol2bus.snoops                          646948                       # Total snoops (count)
system.tol2bus.snoopTraffic                  40079872                       # Total snoop traffic (bytes)
system.tol2bus.snoop_fanout::samples          5455737                       # Request fanout histogram
system.tol2bus.snoop_fanout::mean            0.000018                       # Request fanout histogram
system.tol2bus.snoop_fanout::stdev           0.004217                       # Request fanout histogram
system.tol2bus.snoop_fanout::underflows             0      0.00%      0.00% # Request fanout histogram
system.tol2bus.snoop_fanout::0                5455640    100.00%    100.00% # Request fanout histogram
system.tol2bus.snoop_fanout::1                     97      0.00%    100.00% # Request fanout histogram
system.tol2bus.snoop_fanout::2                      0      0.00%    100.00% # Request fanout histogram
system.tol2bus.snoop_fanout::3                      0      0.00%    100.00% # Request fanout histogram
system.tol2bus.snoop_fanout::4                      0      0.00%    100.00% # Request fanout histogram
system.tol2bus.snoop_fanout::overflows              0      0.00%    100.00% # Request fanout histogram
system.tol2bus.snoop_fanout::min_value              0                       # Request fanout histogram
system.tol2bus.snoop_fanout::max_value              1                       # Request fanout histogram
system.tol2bus.snoop_fanout::total            5455737                       # Request fanout histogram
system.tol2bus.reqLayer0.occupancy         5699710500                       # Layer occupancy (ticks)
system.tol2bus.reqLayer0.utilization              2.7                       # Layer utilization (%)
system.tol2bus.respLayer1.occupancy        7050601000                       # Layer occupancy (ticks)
system.tol2bus.respLayer1.utilization             3.3                       # Layer utilization (%)
system.tol2bus.respLayer0.occupancy            265500                       # Layer occupancy (ticks)
system.tol2bus.respLayer0.utilization             0.0                       # Layer utilization (%)
system.tol2bus.power_state.pwrStateResidencyTicks::UNDEFINED 1352571949500                       # Cumulative time (in ticks) in various power states
system.voltage_domain.voltage                       1                       # Voltage in Volts
system.clk_domain.clock                          1000                       # Clock period in ticks
system.l2.demand_hits::.switch_cpus_1.inst           33                       # number of demand (read+write) hits
system.l2.demand_hits::.switch_cpus_1.data       560529                       # number of demand (read+write) hits
system.l2.demand_hits::total                   560562                       # number of demand (read+write) hits
system.l2.overall_hits::.switch_cpus_1.inst           33                       # number of overall hits
system.l2.overall_hits::.switch_cpus_1.data       560529                       # number of overall hits
system.l2.overall_hits::total                  560562                       # number of overall hits
system.l2.demand_misses::.switch_cpus_1.inst          144                       # number of demand (read+write) misses
system.l2.demand_misses::.switch_cpus_1.data      4085766                       # number of demand (read+write) misses
system.l2.demand_misses::total                4085910                       # number of demand (read+write) misses
system.l2.overall_misses::.switch_cpus_1.inst          144                       # number of overall misses
system.l2.overall_misses::.switch_cpus_1.data      4085766                       # number of overall misses
system.l2.overall_misses::total               4085910                       # number of overall misses
system.l2.demand_miss_latency::.switch_cpus_1.inst     13343500                       # number of demand (read+write) miss cycles
system.l2.demand_miss_latency::.switch_cpus_1.data 162487184000                       # number of demand (read+write) miss cycles
system.l2.demand_miss_latency::total     162500527500                       # number of demand (read+write) miss cycles
system.l2.overall_miss_latency::.switch_cpus_1.inst     13343500                       # number of overall miss cycles
system.l2.overall_miss_latency::.switch_cpus_1.data 162487184000                       # number of overall miss cycles
system.l2.overall_miss_latency::total    162500527500                       # number of overall miss cycles
system.l2.demand_accesses::.switch_cpus_1.inst          177                       # number of demand (read+write) accesses
system.l2.demand_accesses::.switch_cpus_1.data      4646295                       # number of demand (read+write) accesses
system.l2.demand_accesses::total              4646472                       # number of demand (read+write) accesses
system.l2.overall_accesses::.switch_cpus_1.inst          177                       # number of overall (read+write) accesses
system.l2.overall_accesses::.switch_cpus_1.data      4646295                       # number of overall (read+write) accesses
system.l2.overall_accesses::total             4646472                       # number of overall (read+write) accesses
system.l2.demand_miss_rate::.switch_cpus_1.inst     0.813559                       # miss rate for demand accesses
system.l2.demand_miss_rate::.switch_cpus_1.data     0.879360                       # miss rate for demand accesses
system.l2.demand_miss_rate::total            0.879357                       # miss rate for demand accesses
system.l2.overall_miss_rate::.switch_cpus_1.inst     0.813559                       # miss rate for overall accesses
system.l2.overall_miss_rate::.switch_cpus_1.data     0.879360                       # miss rate for overall accesses
system.l2.overall_miss_rate::total           0.879357                       # miss rate for overall accesses
system.l2.demand_avg_miss_latency::.switch_cpus_1.inst 92663.194444                       # average overall miss latency
system.l2.demand_avg_miss_latency::.switch_cpus_1.data 39769.087119                       # average overall miss latency
[...]
system.cpu.dcache.demand_miss_latency::.switch_cpus_1.data 299869482132                       # number of demand (read+write) miss cycles
system.cpu.dcache.demand_miss_latency::total 323890592132                       # number of demand (read+write) miss cycles
system.cpu.dcache.overall_miss_latency::.switch_cpus.data  24021110000                       # number of overall miss cycles
system.cpu.dcache.overall_miss_latency::.switch_cpus_1.data 299869482132                       # number of overall miss cycles
system.cpu.dcache.overall_miss_latency::total 323890592132                       # number of overall miss cycles
system.cpu.dcache.demand_accesses::.cpu.data    433795338                       # number of demand (read+write) accesses
system.cpu.dcache.demand_accesses::.switch_cpus.data     21480195                       # number of demand (read+write) accesses
system.cpu.dcache.demand_accesses::.switch_cpus_1.data    130103297                       # number of demand (read+write) accesses
system.cpu.dcache.demand_accesses::total    585378830                       # number of demand (read+write) accesses
system.cpu.dcache.overall_accesses::.cpu.data    433795338                       # number of overall (read+write) accesses
system.cpu.dcache.overall_accesses::.switch_cpus.data     21480195                       # number of overall (read+write) accesses
system.cpu.dcache.overall_accesses::.switch_cpus_1.data    130103297                       # number of overall (read+write) accesses
system.cpu.dcache.overall_accesses::total    585378830                       # number of overall (read+write) accesses
system.cpu.dcache.demand_miss_rate::.cpu.data     0.036713                       # miss rate for demand accesses
system.cpu.dcache.demand_miss_rate::.switch_cpus.data     0.029381                       # miss rate for demand accesses
system.cpu.dcache.demand_miss_rate::.switch_cpus_1.data     0.056437                       # miss rate for demand accesses
system.cpu.dcache.demand_miss_rate::total     0.040828                       # miss rate for demand accesses
system.cpu.dcache.overall_miss_rate::.cpu.data     0.036713                       # miss rate for overall accesses
system.cpu.dcache.overall_miss_rate::.switch_cpus.data     0.029381                       # miss rate for overall accesses
system.cpu.dcache.overall_miss_rate::.switch_cpus_1.data     0.056437                       # miss rate for overall accesses
system.cpu.dcache.overall_miss_rate::total     0.040828                       # miss rate for overall accesses
system.cpu.dcache.demand_avg_miss_latency::.switch_cpus.data 38061.383425                       # average overall miss latency
system.cpu.dcache.demand_avg_miss_latency::.switch_cpus_1.data 40839.230425                       # average overall miss latency
system.cpu.dcache.demand_avg_miss_latency::total 13552.102113                       # average overall miss latency
system.cpu.dcache.overall_avg_miss_latency::.switch_cpus.data 38061.383425                       # average overall miss latency
system.cpu.dcache.overall_avg_miss_latency::.switch_cpus_1.data 40839.230425                       # average overall miss latency
system.cpu.dcache.overall_avg_miss_latency::total 13552.102113                       # average overall miss latency
system.cpu.dcache.blocked_cycles::no_mshrs     22744221                       # number of cycles access was blocked
system.cpu.dcache.blocked_cycles::no_targets          662                       # number of cycles access was blocked
system.cpu.dcache.blocked::no_mshrs           1125946                       # number of cycles access was blocked
system.cpu.dcache.blocked::no_targets               8                       # number of cycles access was blocked
system.cpu.dcache.avg_blocked_cycles::no_mshrs    20.200099                       # average number of cycles each access was blocked
system.cpu.dcache.avg_blocked_cycles::no_targets    82.750000                       # average number of cycles each access was blocked
system.cpu.dcache.writebacks::.writebacks      5938234                       # number of writebacks
system.cpu.dcache.writebacks::total           5938234                       # number of writebacks
system.cpu.dcache.demand_mshr_hits::.switch_cpus_1.data      2534166                       # number of demand (read+write) MSHR hits
system.cpu.dcache.demand_mshr_hits::total      2534166                       # number of demand (read+write) MSHR hits
system.cpu.dcache.overall_mshr_hits::.switch_cpus_1.data      2534166                       # number of overall MSHR hits
system.cpu.dcache.overall_mshr_hits::total      2534166                       # number of overall MSHR hits
system.cpu.dcache.demand_mshr_misses::.switch_cpus.data       631115                       # number of demand (read+write) MSHR misses
system.cpu.dcache.demand_mshr_misses::.switch_cpus_1.data      4808516                       # number of demand (read+write) MSHR misses
system.cpu.dcache.demand_mshr_misses::total      5439631                       # number of demand (read+write) MSHR misses
system.cpu.dcache.overall_mshr_misses::.switch_cpus.data       631115                       # number of overall MSHR misses
system.cpu.dcache.overall_mshr_misses::.switch_cpus_1.data      4808516                       # number of overall MSHR misses
system.cpu.dcache.overall_mshr_misses::total      5439631                       # number of overall MSHR misses
system.cpu.dcache.demand_mshr_miss_latency::.switch_cpus.data  23389995000                       # number of demand (read+write) MSHR miss cycles
system.cpu.dcache.demand_mshr_miss_latency::.switch_cpus_1.data 177589006632                       # number of demand (read+write) MSHR miss cycles
system.cpu.dcache.demand_mshr_miss_latency::total 200979001632                       # number of demand (read+write) MSHR miss cycles
system.cpu.dcache.overall_mshr_miss_latency::.switch_cpus.data  23389995000                       # number of overall MSHR miss cycles
system.cpu.dcache.overall_mshr_miss_latency::.switch_cpus_1.data 177589006632                       # number of overall MSHR miss cycles
system.cpu.dcache.overall_mshr_miss_latency::total 200979001632                       # number of overall MSHR miss cycles
system.cpu.dcache.demand_mshr_miss_rate::.switch_cpus.data     0.029381                       # mshr miss rate for demand accesses
system.cpu.dcache.demand_mshr_miss_rate::.switch_cpus_1.data     0.036959                       # mshr miss rate for demand accesses
system.cpu.dcache.demand_mshr_miss_rate::total     0.009292                       # mshr miss rate for demand accesses
system.cpu.dcache.overall_mshr_miss_rate::.switch_cpus.data     0.029381                       # mshr miss rate for overall accesses
system.cpu.dcache.overall_mshr_miss_rate::.switch_cpus_1.data     0.036959                       # mshr miss rate for overall accesses
system.cpu.dcache.overall_mshr_miss_rate::total     0.009292                       # mshr miss rate for overall accesses
system.cpu.dcache.demand_avg_mshr_miss_latency::.switch_cpus.data 37061.383425                       # average overall mshr miss latency
system.cpu.dcache.demand_avg_mshr_miss_latency::.switch_cpus_1.data 36932.185862                       # average overall mshr miss latency
system.cpu.dcache.demand_avg_mshr_miss_latency::total 36947.175577                       # average overall mshr miss latency
system.cpu.dcache.overall_avg_mshr_miss_latency::.switch_cpus.data 37061.383425                       # average overall mshr miss latency
system.cpu.dcache.overall_avg_mshr_miss_latency::.switch_cpus_1.data 36932.185862                       # average overall mshr miss latency
system.cpu.dcache.overall_avg_mshr_miss_latency::total 36947.175577                       # average overall mshr miss latency
system.cpu.dcache.replacements               19495562                       # number of replacements
system.cpu.dcache.ReadReq_hits::.cpu.data    310648536                       # number of ReadReq hits
system.cpu.dcache.ReadReq_hits::.switch_cpus.data     17684477                       # number of ReadReq hits
system.cpu.dcache.ReadReq_hits::.switch_cpus_1.data    101010387                       # number of ReadReq hits
system.cpu.dcache.ReadReq_hits::total       429343400                       # number of ReadReq hits
system.cpu.dcache.ReadReq_misses::.cpu.data     11107429                       # number of ReadReq misses
system.cpu.dcache.ReadReq_misses::.switch_cpus.data       483184                       # number of ReadReq misses
system.cpu.dcache.ReadReq_misses::.switch_cpus_1.data      6370658                       # number of ReadReq misses
system.cpu.dcache.ReadReq_misses::total      17961271                       # number of ReadReq misses
system.cpu.dcache.ReadReq_miss_latency::.switch_cpus.data  17476001500                       # number of ReadReq miss cycles
system.cpu.dcache.ReadReq_miss_latency::.switch_cpus_1.data 258586347500                       # number of ReadReq miss cycles
system.cpu.dcache.ReadReq_miss_latency::total 276062349000                       # number of ReadReq miss cycles
system.cpu.dcache.ReadReq_accesses::.cpu.data    321755965                       # number of ReadReq accesses(hits+misses)
system.cpu.dcache.ReadReq_accesses::.switch_cpus.data     18167661                       # number of ReadReq accesses(hits+misses)
system.cpu.dcache.ReadReq_accesses::.switch_cpus_1.data    107381045                       # number of ReadReq accesses(hits+misses)
system.cpu.dcache.ReadReq_accesses::total    447304671                       # number of ReadReq accesses(hits+misses)
system.cpu.dcache.ReadReq_miss_rate::.cpu.data     0.034521                       # miss rate for ReadReq accesses
system.cpu.dcache.ReadReq_miss_rate::.switch_cpus.data     0.026596                       # miss rate for ReadReq accesses
system.cpu.dcache.ReadReq_miss_rate::.switch_cpus_1.data     0.059328                       # miss rate for ReadReq accesses
system.cpu.dcache.ReadReq_miss_rate::total     0.040154                       # miss rate for ReadReq accesses
system.cpu.dcache.ReadReq_avg_miss_latency::.switch_cpus.data 36168.419277                       # average ReadReq miss latency
system.cpu.dcache.ReadReq_avg_miss_latency::.switch_cpus_1.data 40590.210226                       # average ReadReq miss latency
system.cpu.dcache.ReadReq_avg_miss_latency::total 15369.867144                       # average ReadReq miss latency
system.cpu.dcache.ReadReq_mshr_hits::.switch_cpus_1.data      2534063                       # number of ReadReq MSHR hits
system.cpu.dcache.ReadReq_mshr_hits::total      2534063                       # number of ReadReq MSHR hits
system.cpu.dcache.ReadReq_mshr_misses::.switch_cpus.data       483184                       # number of ReadReq MSHR misses
system.cpu.dcache.ReadReq_mshr_misses::.switch_cpus_1.data      3836595                       # number of ReadReq MSHR misses
system.cpu.dcache.ReadReq_mshr_misses::total      4319779                       # number of ReadReq MSHR misses
system.cpu.dcache.ReadReq_mshr_miss_latency::.switch_cpus.data  16992817500                       # number of ReadReq MSHR miss cycles
system.cpu.dcache.ReadReq_mshr_miss_latency::.switch_cpus_1.data 137278028000                       # number of ReadReq MSHR miss cycles
system.cpu.dcache.ReadReq_mshr_miss_latency::total 154270845500                       # number of ReadReq MSHR miss cycles
system.cpu.dcache.ReadReq_mshr_miss_rate::.switch_cpus.data     0.026596                       # mshr miss rate for ReadReq accesses
system.cpu.dcache.ReadReq_mshr_miss_rate::.switch_cpus_1.data     0.035729                       # mshr miss rate for ReadReq accesses
system.cpu.dcache.ReadReq_mshr_miss_rate::total     0.009657                       # mshr miss rate for ReadReq accesses
system.cpu.dcache.ReadReq_avg_mshr_miss_latency::.switch_cpus.data 35168.419277                       # average ReadReq mshr miss latency
system.cpu.dcache.ReadReq_avg_mshr_miss_latency::.switch_cpus_1.data 35781.214332                       # average ReadReq mshr miss latency
system.cpu.dcache.ReadReq_avg_mshr_miss_latency::total 35712.670833                       # average ReadReq mshr miss latency
system.cpu.dcache.WriteReq_hits::.cpu.data    107220942                       # number of WriteReq hits
system.cpu.dcache.WriteReq_hits::.switch_cpus.data      3164603                       # number of WriteReq hits
system.cpu.dcache.WriteReq_hits::.switch_cpus_1.data     21750228                       # number of WriteReq hits
system.cpu.dcache.WriteReq_hits::total      132135773                       # number of WriteReq hits
system.cpu.dcache.WriteReq_misses::.cpu.data      4818431                       # number of WriteReq misses
system.cpu.dcache.WriteReq_misses::.switch_cpus.data       147931                       # number of WriteReq misses
system.cpu.dcache.WriteReq_misses::.switch_cpus_1.data       972024                       # number of WriteReq misses
system.cpu.dcache.WriteReq_misses::total      5938386                       # number of WriteReq misses
system.cpu.dcache.WriteReq_miss_latency::.switch_cpus.data   6545108500                       # number of WriteReq miss cycles
system.cpu.dcache.WriteReq_miss_latency::.switch_cpus_1.data  41283134632                       # number of WriteReq miss cycles
system.cpu.dcache.WriteReq_miss_latency::total  47828243132                       # number of WriteReq miss cycles
system.cpu.dcache.WriteReq_accesses::.cpu.data    112039373                       # number of WriteReq accesses(hits+misses)
system.cpu.dcache.WriteReq_accesses::.switch_cpus.data      3312534                       # number of WriteReq accesses(hits+misses)
system.cpu.dcache.WriteReq_accesses::.switch_cpus_1.data     22722252                       # number of WriteReq accesses(hits+misses)
system.cpu.dcache.WriteReq_accesses::total    138074159                       # number of WriteReq accesses(hits+misses)
system.cpu.dcache.WriteReq_miss_rate::.cpu.data     0.043007                       # miss rate for WriteReq accesses
system.cpu.dcache.WriteReq_miss_rate::.switch_cpus.data     0.044658                       # miss rate for WriteReq accesses
system.cpu.dcache.WriteReq_miss_rate::.switch_cpus_1.data     0.042779                       # miss rate for WriteReq accesses
system.cpu.dcache.WriteReq_miss_rate::total     0.043009                       # miss rate for WriteReq accesses
system.cpu.dcache.WriteReq_avg_miss_latency::.switch_cpus.data 44244.333507                       # average WriteReq miss latency
system.cpu.dcache.WriteReq_avg_miss_latency::.switch_cpus_1.data 42471.312058                       # average WriteReq miss latency
system.cpu.dcache.WriteReq_avg_miss_latency::total  8054.081215                       # average WriteReq miss latency
system.cpu.dcache.WriteReq_mshr_hits::.switch_cpus_1.data          103                       # number of WriteReq MSHR hits
system.cpu.dcache.WriteReq_mshr_hits::total          103                       # number of WriteReq MSHR hits
system.cpu.dcache.WriteReq_mshr_misses::.switch_cpus.data       147931                       # number of WriteReq MSHR misses
system.cpu.dcache.WriteReq_mshr_misses::.switch_cpus_1.data       971921                       # number of WriteReq MSHR misses
system.cpu.dcache.WriteReq_mshr_misses::total      1119852                       # number of WriteReq MSHR misses
system.cpu.dcache.WriteReq_mshr_miss_latency::.switch_cpus.data   6397177500                       # number of WriteReq MSHR miss cycles
system.cpu.dcache.WriteReq_mshr_miss_latency::.switch_cpus_1.data  40310978632                       # number of WriteReq MSHR miss cycles
system.cpu.dcache.WriteReq_mshr_miss_latency::total  46708156132                       # number of WriteReq MSHR miss cycles
system.cpu.dcache.WriteReq_mshr_miss_rate::.switch_cpus.data     0.044658                       # mshr miss rate for WriteReq accesses
system.cpu.dcache.WriteReq_mshr_miss_rate::.switch_cpus_1.data     0.042774                       # mshr miss rate for WriteReq accesses
system.cpu.dcache.WriteReq_mshr_miss_rate::total     0.008111                       # mshr miss rate for WriteReq accesses
system.cpu.dcache.WriteReq_avg_mshr_miss_latency::.switch_cpus.data 43244.333507                       # average WriteReq mshr miss latency
system.cpu.dcache.WriteReq_avg_mshr_miss_latency::.switch_cpus_1.data 41475.571196                       # average WriteReq mshr miss latency
system.cpu.dcache.WriteReq_avg_mshr_miss_latency::total 41709.222408                       # average WriteReq mshr miss latency
system.cpu.dcache.power_state.pwrStateResidencyTicks::UNDEFINED 1352571949500                       # Cumulative time (in ticks) in various power states
system.cpu.dcache.tags.tagsinuse           511.995244                       # Cycle average of tags in use
system.cpu.dcache.tags.total_refs           582985206                       # Total number of references to valid blocks.
system.cpu.dcache.tags.sampled_refs          19496074                       # Sample count of references to valid blocks.
system.cpu.dcache.tags.avg_refs             29.902698                       # Average number of references to valid blocks.
system.cpu.dcache.tags.warmup_cycle              1500                       # Cycle when the warmup percentage was hit.
system.cpu.dcache.tags.occ_blocks::.cpu.data   388.521797                       # Average occupied blocks per requestor
system.cpu.dcache.tags.occ_blocks::.switch_cpus.data    42.446388                       # Average occupied blocks per requestor
system.cpu.dcache.tags.occ_blocks::.switch_cpus_1.data    81.027059                       # Average occupied blocks per requestor
system.cpu.dcache.tags.occ_percent::.cpu.data     0.758832                       # Average percentage of cache occupancy
system.cpu.dcache.tags.occ_percent::.switch_cpus.data     0.082903                       # Average percentage of cache occupancy
system.cpu.dcache.tags.occ_percent::.switch_cpus_1.data     0.158256                       # Average percentage of cache occupancy
system.cpu.dcache.tags.occ_percent::total     0.999991                       # Average percentage of cache occupancy
system.cpu.dcache.tags.occ_task_id_blocks::1024          512                       # Occupied blocks per task id
system.cpu.dcache.tags.age_task_id_blocks_1024::0           35                       # Occupied blocks per task id
system.cpu.dcache.tags.age_task_id_blocks_1024::1          264                       # Occupied blocks per task id
system.cpu.dcache.tags.age_task_id_blocks_1024::2          212                       # Occupied blocks per task id
system.cpu.dcache.tags.age_task_id_blocks_1024::3            1                       # Occupied blocks per task id
system.cpu.dcache.tags.occ_task_id_percent::1024            1                       # Percentage of cache occupancy per task id
system.cpu.dcache.tags.tag_accesses        1190253734                       # Number of tag accesses
system.cpu.dcache.tags.data_accesses       1190253734                       # Number of data accesses
system.cpu.dcache.tags.power_state.pwrStateResidencyTicks::UNDEFINED 1352571949500                       # Cumulative time (in ticks) in various power states
system.cpu.power_state.numTransitions               2                       # Number of power state transitions
system.cpu.power_state.pwrStateResidencyTicks::ON 1026110805500                       # Cumulative time (in ticks) in various power states
system.cpu.power_state.pwrStateResidencyTicks::OFF 326461144000                       # Cumulative time (in ticks) in various power states

---------- End Simulation Statistics   ----------
