
---------- Begin Simulation Statistics ----------
final_tick                               1193620301000                       # Number of ticks from beginning of simulation (restored from checkpoints and never reset)
host_inst_rate                                 317959                       # Simulator instruction rate (inst/s)
host_mem_usage                                4555068                       # Number of bytes of host memory used
host_op_rate                                   483651                       # Simulator op (including micro ops) rate (op/s)
host_seconds                                  4088.58                       # Real time elapsed on the host
host_tick_rate                               30388278                       # Simulator tick rate (ticks/s)
sim_freq                                 1000000000000                       # Frequency of simulated ticks
sim_insts                                  1300000004                       # Number of instructions simulated
sim_ops                                    1977442458                       # Number of ops (including micro ops) simulated
sim_seconds                                  0.124245                       # Number of seconds simulated
sim_ticks                                124244770750                       # Number of ticks simulated
system.cpu.committedInsts                           0                       # Number of instructions committed
system.cpu.committedOps                             0                       # Number of ops (including micro ops) committed
system.cpu.dtb.rdAccesses                           0                       # TLB accesses on read requests
system.cpu.dtb.rdMisses                             0                       # TLB misses on read requests
system.cpu.dtb.wrAccesses                           0                       # TLB accesses on write requests
system.cpu.dtb.wrMisses                             0                       # TLB misses on write requests
system.cpu.idle_fraction                            0                       # Percentage of idle cycles
system.cpu.itb.rdAccesses                           0                       # TLB accesses on read requests
system.cpu.itb.rdMisses                             0                       # TLB misses on read requests
system.cpu.itb.wrAccesses                           0                       # TLB accesses on write requests
system.cpu.itb.wrMisses                             0                       # TLB misses on write requests
system.cpu.not_idle_fraction                        1                       # Percentage of non-idle cycles
system.cpu.numCycles                                0                       # number of cpu cycles simulated
system.cpu.numWorkItemsCompleted                    0                       # number of work items this cpu completed
system.cpu.numWorkItemsStarted                      0                       # number of work items this cpu started
system.cpu.num_busy_cycles                          0                       # Number of busy cycles
system.cpu.num_conditional_control_insts            0                       # number of instructions that are conditional controls
system.cpu.num_fp_alu_accesses                      0                       # Number of float alu accesses
system.cpu.num_fp_insts                             0                       # number of float instructions
system.cpu.num_fp_register_reads                    0                       # number of times the floating registers were read
system.cpu.num_fp_register_writes                   0                       # number of times the floating registers were written
system.cpu.num_func_calls                           0                       # number of times a function call or return occured
system.cpu.num_idle_cycles                          0                       # Number of idle cycles
system.cpu.num_int_alu_accesses                     0                       # Number of integer alu accesses
system.cpu.num_int_insts                            0                       # number of integer instructions
system.cpu.num_int_register_reads                   0                       # number of times the integer registers were read
system.cpu.num_int_register_writes                  0                       # number of times the integer registers were written
system.cpu.num_load_insts                           0                       # Number of load instructions
system.cpu.num_mem_refs                             0                       # number of memory refs
system.cpu.num_store_insts                          0                       # Number of store instructions
system.cpu.num_vec_alu_accesses                     0                       # Number of vector alu accesses
system.cpu.num_vec_insts                            0                       # number of vector instructions
system.cpu.num_vec_register_reads                   0                       # number of times the vector registers were read
system.cpu.num_vec_register_writes                  0                       # number of times the vector registers were written
system.cpu.op_class::No_OpClass                     0                       # Class of executed instruction
system.cpu.op_class::IntAlu                         0                       # Class of executed instruction
system.cpu.op_class::IntMult                        0                       # Class of executed instruction
system.cpu.op_class::IntDiv                         0                       # Class of executed instruction
system.cpu.op_class::FloatAdd                       0                       # Class of executed instruction
system.cpu.op_class::FloatCmp                       0                       # Class of executed instruction
system.cpu.op_class::FloatCvt                       0                       # Class of executed instruction
system.cpu.op_class::FloatMult                      0                       # Class of executed instruction
system.cpu.op_class::FloatMultAcc                   0                       # Class of executed instruction
system.cpu.op_class::FloatDiv                       0                       # Class of executed instruction
system.cpu.op_class::FloatMisc                      0                       # Class of executed instruction
system.cpu.op_class::FloatSqrt                      0                       # Class of executed instruction
system.cpu.op_class::SimdAdd                        0                       # Class of executed instruction
system.cpu.op_class::SimdAddAcc                     0                       # Class of executed instruction
system.cpu.op_class::SimdAlu                        0                       # Class of executed instruction
system.cpu.op_class::SimdCmp                        0                       # Class of executed instruction
system.cpu.op_class::SimdCvt                        0                       # Class of executed instruction
system.cpu.op_class::SimdMisc                       0                       # Class of executed instruction
system.cpu.op_class::SimdMult                       0                       # Class of executed instruction
system.cpu.op_class::SimdMultAcc                    0                       # Class of executed instruction
system.cpu.op_class::SimdShift                      0                       # Class of executed instruction
system.cpu.op_class::SimdShiftAcc                   0                       # Class of executed instruction
system.cpu.op_class::SimdDiv                        0                       # Class of executed instruction
system.cpu.op_class::SimdSqrt                       0                       # Class of executed instruction
system.cpu.op_class::SimdFloatAdd                   0                       # Class of executed instruction
system.cpu.op_class::SimdFloatAlu                   0                       # Class of executed instruction
system.cpu.op_class::SimdFloatCmp                   0                       # Class of executed instruction
system.cpu.op_class::SimdFloatCvt                   0                       # Class of executed instruction
system.cpu.op_class::SimdFloatDiv                   0                       # Class of executed instruction
system.cpu.op_class::SimdFloatMisc                  0                       # Class of executed instruction
system.cpu.op_class::SimdFloatMult                  0                       # Class of executed instruction
system.cpu.op_class::SimdFloatMultAcc               0                       # Class of executed instruction
system.cpu.op_class::SimdFloatSqrt                  0                       # Class of executed instruction
system.cpu.op_class::SimdReduceAdd                  0                       # Class of executed instruction
system.cpu.op_class::SimdReduceAlu                  0                       # Class of executed instruction
system.cpu.op_class::SimdReduceCmp                  0                       # Class of executed instruction
system.cpu.op_class::SimdFloatReduceAdd             0                       # Class of executed instruction
system.cpu.op_class::SimdFloatReduceCmp             0                       # Class of executed instruction
system.cpu.op_class::SimdAes                        0                       # Class of executed instruction
system.cpu.op_class::SimdAesMix                     0                       # Class of executed instruction
system.cpu.op_class::SimdSha1Hash                   0                       # Class of executed instruction
system.cpu.op_class::SimdSha1Hash2                  0                       # Class of executed instruction
system.cpu.op_class::SimdSha256Hash                 0                       # Class of executed instruction
system.cpu.op_class::SimdSha256Hash2                0                       # Class of executed instruction
system.cpu.op_class::SimdShaSigma2                  0                       # Class of executed instruction
system.cpu.op_class::SimdShaSigma3                  0                       # Class of executed instruction
system.cpu.op_class::SimdPredAlu                    0                       # Class of executed instruction
system.cpu.op_class::MemRead                        0                       # Class of executed instruction
system.cpu.op_class::MemWrite                       0                       # Class of executed instruction
system.cpu.op_class::FloatMemRead                   0                       # Class of executed instruction
system.cpu.op_class::FloatMemWrite                  0                       # Class of executed instruction
system.cpu.op_class::IprAccess                      0                       # Class of executed instruction
system.cpu.op_class::InstPrefetch                   0                       # Class of executed instruction
system.cpu.op_class::total                          0                       # Class of executed instruction
system.cpu.workload.numSyscalls                     0                       # Number of system calls
system.membus.snoop_filter.hit_multi_requests            0                       # Number of requests hitting in the snoop filter with multiple (>1) holders of the requested data.
system.membus.snoop_filter.hit_multi_snoops            0                       # Number of snoops hitting in the snoop filter with multiple (>1) holders of the requested data.
system.membus.snoop_filter.hit_single_requests       690981                       # Number of requests hitting in the snoop filter with a single holder of the requested data.
system.membus.snoop_filter.hit_single_snoops            0                       # Number of snoops hitting in the snoop filter with a single holder of the requested data.
system.membus.snoop_filter.tot_requests       1380967                       # Total number of requests made to the snoop filter.
system.membus.snoop_filter.tot_snoops               0                       # Total number of snoops made to the snoop filter.
system.switch_cpus.committedInsts                   0                       # Number of instructions committed
system.switch_cpus.committedOps                     0                       # Number of ops (including micro ops) committed
system.switch_cpus.dtb.rdAccesses                   0                       # TLB accesses on read requests
system.switch_cpus.dtb.rdMisses                     0                       # TLB misses on read requests
system.switch_cpus.dtb.wrAccesses                   0                       # TLB accesses on write requests
system.switch_cpus.dtb.wrMisses                     0                       # TLB misses on write requests
system.switch_cpus.idle_fraction                    0                       # Percentage of idle cycles
system.switch_cpus.itb.rdAccesses                   0                       # TLB accesses on read requests
system.switch_cpus.itb.rdMisses                     0                       # TLB misses on read requests
system.switch_cpus.itb.wrAccesses                   0                       # TLB accesses on write requests
system.switch_cpus.itb.wrMisses                     0                       # TLB misses on write requests
system.switch_cpus.not_idle_fraction                1                       # Percentage of non-idle cycles
system.switch_cpus.numCycles                        0                       # number of cpu cycles simulated
system.switch_cpus.numWorkItemsCompleted            0                       # number of work items this cpu completed
system.switch_cpus.numWorkItemsStarted              0                       # number of work items this cpu started
system.switch_cpus.num_busy_cycles                  0                       # Number of busy cycles
system.switch_cpus.num_conditional_control_insts            0                       # number of instructions that are conditional controls
system.switch_cpus.num_fp_alu_accesses              0                       # Number of float alu accesses
system.switch_cpus.num_fp_insts                     0                       # number of float instructions
system.switch_cpus.num_fp_register_reads            0                       # number of times the floating registers were read
system.switch_cpus.num_fp_register_writes            0                       # number of times the floating registers were written
system.switch_cpus.num_func_calls                   0                       # number of times a function call or return occured
system.switch_cpus.num_idle_cycles                  0                       # Number of idle cycles
system.switch_cpus.num_int_alu_accesses             0                       # Number of integer alu accesses
system.switch_cpus.num_int_insts                    0                       # number of integer instructions
system.switch_cpus.num_int_register_reads            0                       # number of times the integer registers were read
system.switch_cpus.num_int_register_writes            0                       # number of times the integer registers were written
system.switch_cpus.num_load_insts                   0                       # Number of load instructions
system.switch_cpus.num_mem_refs                     0                       # number of memory refs
system.switch_cpus.num_store_insts                  0                       # Number of store instructions
system.switch_cpus.num_vec_alu_accesses             0                       # Number of vector alu accesses
system.switch_cpus.num_vec_insts                    0                       # number of vector instructions
system.switch_cpus.num_vec_register_reads            0                       # number of times the vector registers were read
system.switch_cpus.num_vec_register_writes            0                       # number of times the vector registers were written
system.switch_cpus.op_class::No_OpClass             0                       # Class of executed instruction
system.switch_cpus.op_class::IntAlu                 0                       # Class of executed instruction
system.switch_cpus.op_class::IntMult                0                       # Class of executed instruction
system.switch_cpus.op_class::IntDiv                 0                       # Class of executed instruction
system.switch_cpus.op_class::FloatAdd               0                       # Class of executed instruction
system.switch_cpus.op_class::FloatCmp               0                       # Class of executed instruction
system.switch_cpus.op_class::FloatCvt               0                       # Class of executed instruction
system.switch_cpus.op_class::FloatMult              0                       # Class of executed instruction
system.switch_cpus.op_class::FloatMultAcc            0                       # Class of executed instruction
system.switch_cpus.op_class::FloatDiv               0                       # Class of executed instruction
system.switch_cpus.op_class::FloatMisc              0                       # Class of executed instruction
system.switch_cpus.op_class::FloatSqrt              0                       # Class of executed instruction
system.switch_cpus.op_class::SimdAdd                0                       # Class of executed instruction
system.switch_cpus.op_class::SimdAddAcc             0                       # Class of executed instruction
system.switch_cpus.op_class::SimdAlu                0                       # Class of executed instruction
system.switch_cpus.op_class::SimdCmp                0                       # Class of executed instruction
system.switch_cpus.op_class::SimdCvt                0                       # Class of executed instruction
system.switch_cpus.op_class::SimdMisc               0                       # Class of executed instruction
system.switch_cpus.op_class::SimdMult               0                       # Class of executed instruction
system.switch_cpus.op_class::SimdMultAcc            0                       # Class of executed instruction
system.switch_cpus.op_class::SimdShift              0                       # Class of executed instruction
system.switch_cpus.op_class::SimdShiftAcc            0                       # Class of executed instruction
system.switch_cpus.op_class::SimdDiv                0                       # Class of executed instruction
system.switch_cpus.op_class::SimdSqrt               0                       # Class of executed instruction
system.switch_cpus.op_class::SimdFloatAdd            0                       # Class of executed instruction
system.switch_cpus.op_class::SimdFloatAlu            0                       # Class of executed instruction
system.switch_cpus.op_class::SimdFloatCmp            0                       # Class of executed instruction
system.switch_cpus.op_class::SimdFloatCvt            0                       # Class of executed instruction
system.switch_cpus.op_class::SimdFloatDiv            0                       # Class of executed instruction
system.switch_cpus.op_class::SimdFloatMisc            0                       # Class of executed instruction
system.switch_cpus.op_class::SimdFloatMult            0                       # Class of executed instruction
system.switch_cpus.op_class::SimdFloatMultAcc            0                       # Class of executed instruction
system.switch_cpus.op_class::SimdFloatSqrt            0                       # Class of executed instruction
system.switch_cpus.op_class::SimdReduceAdd            0                       # Class of executed instruction
system.switch_cpus.op_class::SimdReduceAlu            0                       # Class of executed instruction
system.switch_cpus.op_class::SimdReduceCmp            0                       # Class of executed instruction
system.switch_cpus.op_class::SimdFloatReduceAdd            0                       # Class of executed instruction
system.switch_cpus.op_class::SimdFloatReduceCmp            0                       # Class of executed instruction
system.switch_cpus.op_class::SimdAes                0                       # Class of executed instruction
system.switch_cpus.op_class::SimdAesMix             0                       # Class of executed instruction
system.switch_cpus.op_class::SimdSha1Hash            0                       # Class of executed instruction
system.switch_cpus.op_class::SimdSha1Hash2            0                       # Class of executed instruction
system.switch_cpus.op_class::SimdSha256Hash            0                       # Class of executed instruction
system.switch_cpus.op_class::SimdSha256Hash2            0                       # Class of executed instruction
system.switch_cpus.op_class::SimdShaSigma2            0                       # Class of executed instruction
system.switch_cpus.op_class::SimdShaSigma3            0                       # Class of executed instruction
system.switch_cpus.op_class::SimdPredAlu            0                       # Class of executed instruction
system.switch_cpus.op_class::MemRead                0                       # Class of executed instruction
system.switch_cpus.op_class::MemWrite               0                       # Class of executed instruction
system.switch_cpus.op_class::FloatMemRead            0                       # Class of executed instruction
system.switch_cpus.op_class::FloatMemWrite            0                       # Class of executed instruction
system.switch_cpus.op_class::IprAccess              0                       # Class of executed instruction
system.switch_cpus.op_class::InstPrefetch            0                       # Class of executed instruction
system.switch_cpus.op_class::total                  0                       # Class of executed instruction
system.switch_cpus_1.branchPred.BTBCorrect            0                       # Number of correct BTB predictions (this stat may not work properly.
system.switch_cpus_1.branchPred.BTBHitPct          nan                       # BTB Hit Percentage
system.switch_cpus_1.branchPred.BTBHits             0                       # Number of BTB hits
system.switch_cpus_1.branchPred.BTBLookups            0                       # Number of BTB lookups
system.switch_cpus_1.branchPred.RASInCorrect            1                       # Number of incorrect RAS predictions.
system.switch_cpus_1.branchPred.condIncorrect        69096                       # Number of conditional branches incorrect
system.switch_cpus_1.branchPred.condPredicted     12495314                       # Number of conditional branches predicted
system.switch_cpus_1.branchPred.indirectHits      8192477                       # Number of indirect target hits.
system.switch_cpus_1.branchPred.indirectLookups      8223328                       # Number of indirect predictor lookups.
system.switch_cpus_1.branchPred.indirectMisses        30851                       # Number of indirect misses.
system.switch_cpus_1.branchPred.lookups      12654886                       # Number of BP lookups
system.switch_cpus_1.branchPred.usedRAS         82848                       # Number of times the RAS was used to get a target.
system.switch_cpus_1.branchPredindirectMispredicted         6809                       # Number of mispredicted indirect branches.
system.switch_cpus_1.cc_regfile_reads       402611121                       # number of cc regfile reads
system.switch_cpus_1.cc_regfile_writes      200087029                       # number of cc regfile writes
system.switch_cpus_1.commit.amos                    0                       # Number of atomic instructions committed
system.switch_cpus_1.commit.branchMispredicts        69124                       # The number of times a branch was mispredicted
system.switch_cpus_1.commit.branches         12093471                       # Number of branches committed
system.switch_cpus_1.commit.bw_lim_events     27050294                       # number cycles where commit BW limit reached
system.switch_cpus_1.commit.commitSquashedInsts      3623526                       # The number of squashed insts skipped by commit
system.switch_cpus_1.commit.committedInsts    250000002                       # Number of instructions committed
system.switch_cpus_1.commit.committedOps    378875935                       # Number of ops (including micro ops) committed
system.switch_cpus_1.commit.committed_per_cycle::samples    247970972                       # Number of insts commited each cycle
system.switch_cpus_1.commit.committed_per_cycle::mean     1.527904                       # Number of insts commited each cycle
system.switch_cpus_1.commit.committed_per_cycle::stdev     2.645705                       # Number of insts commited each cycle
system.switch_cpus_1.commit.committed_per_cycle::underflows            0      0.00%      0.00% # Number of insts commited each cycle
system.switch_cpus_1.commit.committed_per_cycle::0    148298446     59.80%     59.80% # Number of insts commited each cycle
system.switch_cpus_1.commit.committed_per_cycle::1     42481413     17.13%     76.94% # Number of insts commited each cycle
system.switch_cpus_1.commit.committed_per_cycle::2      2539042      1.02%     77.96% # Number of insts commited each cycle
system.switch_cpus_1.commit.committed_per_cycle::3     11818532      4.77%     82.73% # Number of insts commited each cycle
system.switch_cpus_1.commit.committed_per_cycle::4      8547500      3.45%     86.17% # Number of insts commited each cycle
system.switch_cpus_1.commit.committed_per_cycle::5      1524717      0.61%     86.79% # Number of insts commited each cycle
system.switch_cpus_1.commit.committed_per_cycle::6      2332291      0.94%     87.73% # Number of insts commited each cycle
system.switch_cpus_1.commit.committed_per_cycle::7      3378737      1.36%     89.09% # Number of insts commited each cycle
system.switch_cpus_1.commit.committed_per_cycle::8     27050294     10.91%    100.00% # Number of insts commited each cycle
system.switch_cpus_1.commit.committed_per_cycle::overflows            0      0.00%    100.00% # Number of insts commited each cycle
system.switch_cpus_1.commit.committed_per_cycle::min_value            0                       # Number of insts commited each cycle
system.switch_cpus_1.commit.committed_per_cycle::max_value            8                       # Number of insts commited each cycle
system.switch_cpus_1.commit.committed_per_cycle::total    247970972                       # Number of insts commited each cycle
system.switch_cpus_1.commit.fp_insts           936085                       # Number of committed floating point instructions.
system.switch_cpus_1.commit.function_calls        63846                       # Number of function calls committed.
system.switch_cpus_1.commit.int_insts       378159237                       # Number of committed integer instructions.
system.switch_cpus_1.commit.loads           107274544                       # Number of loads committed
system.switch_cpus_1.commit.membars                 0                       # Number of memory barriers committed
system.switch_cpus_1.commit.op_class_0::No_OpClass        75958      0.02%      0.02% # Class of committed instruction
system.switch_cpus_1.commit.op_class_0::IntAlu    232487734     61.36%     61.38% # Class of committed instruction
system.switch_cpus_1.commit.op_class_0::IntMult       101440      0.03%     61.41% # Class of committed instruction
system.switch_cpus_1.commit.op_class_0::IntDiv            0      0.00%     61.41% # Class of committed instruction
system.switch_cpus_1.commit.op_class_0::FloatAdd        38646      0.01%     61.42% # Class of committed instruction
system.switch_cpus_1.commit.op_class_0::FloatCmp            0      0.00%     61.42% # Class of committed instruction
system.switch_cpus_1.commit.op_class_0::FloatCvt            0      0.00%     61.42% # Class of committed instruction
system.switch_cpus_1.commit.op_class_0::FloatMult            0      0.00%     61.42% # Class of committed instruction
system.switch_cpus_1.commit.op_class_0::FloatMultAcc            0      0.00%     61.42% # Class of committed instruction
system.switch_cpus_1.commit.op_class_0::FloatDiv            0      0.00%     61.42% # Class of committed instruction
system.switch_cpus_1.commit.op_class_0::FloatMisc            0      0.00%     61.42% # Class of committed instruction
system.switch_cpus_1.commit.op_class_0::FloatSqrt            0      0.00%     61.42% # Class of committed instruction
system.switch_cpus_1.commit.op_class_0::SimdAdd            0      0.00%     61.42% # Class of committed instruction
system.switch_cpus_1.commit.op_class_0::SimdAddAcc            0      0.00%     61.42% # Class of committed instruction
system.switch_cpus_1.commit.op_class_0::SimdAlu        50612      0.01%     61.43% # Class of committed instruction
system.switch_cpus_1.commit.op_class_0::SimdCmp            0      0.00%     61.43% # Class of committed instruction
system.switch_cpus_1.commit.op_class_0::SimdCvt        58968      0.02%     61.45% # Class of committed instruction
system.switch_cpus_1.commit.op_class_0::SimdMisc       173446      0.05%     61.49% # Class of committed instruction
system.switch_cpus_1.commit.op_class_0::SimdMult            0      0.00%     61.49% # Class of committed instruction
system.switch_cpus_1.commit.op_class_0::SimdMultAcc            0      0.00%     61.49% # Class of committed instruction
system.switch_cpus_1.commit.op_class_0::SimdShift            0      0.00%     61.49% # Class of committed instruction
system.switch_cpus_1.commit.op_class_0::SimdShiftAcc            0      0.00%     61.49% # Class of committed instruction
system.switch_cpus_1.commit.op_class_0::SimdDiv            0      0.00%     61.49% # Class of committed instruction
system.switch_cpus_1.commit.op_class_0::SimdSqrt            0      0.00%     61.49% # Class of committed instruction
system.switch_cpus_1.commit.op_class_0::SimdFloatAdd       129236      0.03%     61.53% # Class of committed instruction
system.switch_cpus_1.commit.op_class_0::SimdFloatAlu            0      0.00%     61.53% # Class of committed instruction
system.switch_cpus_1.commit.op_class_0::SimdFloatCmp           37      0.00%     61.53% # Class of committed instruction
system.switch_cpus_1.commit.op_class_0::SimdFloatCvt       193257      0.05%     61.58% # Class of committed instruction
system.switch_cpus_1.commit.op_class_0::SimdFloatDiv        25397      0.01%     61.59% # Class of committed instruction
system.switch_cpus_1.commit.op_class_0::SimdFloatMisc            0      0.00%     61.59% # Class of committed instruction
system.switch_cpus_1.commit.op_class_0::SimdFloatMult        13100      0.00%     61.59% # Class of committed instruction
system.switch_cpus_1.commit.op_class_0::SimdFloatMultAcc            0      0.00%     61.59% # Class of committed instruction
system.switch_cpus_1.commit.op_class_0::SimdFloatSqrt            0      0.00%     61.59% # Class of committed instruction
system.switch_cpus_1.commit.op_class_0::SimdReduceAdd            0      0.00%     61.59% # Class of committed instruction
system.switch_cpus_1.commit.op_class_0::SimdReduceAlu            0      0.00%     61.59% # Class of committed instruction
system.switch_cpus_1.commit.op_class_0::SimdReduceCmp            0      0.00%     61.59% # Class of committed instruction
system.switch_cpus_1.commit.op_class_0::SimdFloatReduceAdd            0      0.00%     61.59% # Class of committed instruction
system.switch_cpus_1.commit.op_class_0::SimdFloatReduceCmp            0      0.00%     61.59% # Class of committed instruction
system.switch_cpus_1.commit.op_class_0::SimdAes            0      0.00%     61.59% # Class of committed instruction
system.switch_cpus_1.commit.op_class_0::SimdAesMix            0      0.00%     61.59% # Class of committed instruction
system.switch_cpus_1.commit.op_class_0::SimdSha1Hash            0      0.00%     61.59% # Class of committed instruction
system.switch_cpus_1.commit.op_class_0::SimdSha1Hash2            0      0.00%     61.59% # Class of committed instruction
system.switch_cpus_1.commit.op_class_0::SimdSha256Hash            0      0.00%     61.59% # Class of committed instruction
system.switch_cpus_1.commit.op_class_0::SimdSha256Hash2            0      0.00%     61.59% # Class of committed instruction
system.switch_cpus_1.commit.op_class_0::SimdShaSigma2            0      0.00%     61.59% # Class of committed instruction
system.switch_cpus_1.commit.op_class_0::SimdShaSigma3            0      0.00%     61.59% # Class of committed instruction
system.switch_cpus_1.commit.op_class_0::SimdPredAlu            0      0.00%     61.59% # Class of committed instruction
system.switch_cpus_1.commit.op_class_0::MemRead    107077159     28.26%     89.85% # Class of committed instruction
system.switch_cpus_1.commit.op_class_0::MemWrite     38252946     10.10%     99.95% # Class of committed instruction
system.switch_cpus_1.commit.op_class_0::FloatMemRead       197385      0.05%    100.00% # Class of committed instruction
system.switch_cpus_1.commit.op_class_0::FloatMemWrite          614      0.00%    100.00% # Class of committed instruction
system.switch_cpus_1.commit.op_class_0::IprAccess            0      0.00%    100.00% # Class of committed instruction
system.switch_cpus_1.commit.op_class_0::InstPrefetch            0      0.00%    100.00% # Class of committed instruction
system.switch_cpus_1.commit.op_class_0::total    378875935                       # Class of committed instruction
system.switch_cpus_1.commit.refs            145528104                       # Number of memory references committed
system.switch_cpus_1.commit.swp_count               0                       # Number of s/w prefetches committed
system.switch_cpus_1.commit.vec_insts               0                       # Number of committed Vector instructions.
system.switch_cpus_1.committedInsts         250000002                       # Number of Instructions Simulated
system.switch_cpus_1.committedOps           378875935                       # Number of Ops (including micro ops) Simulated
system.switch_cpus_1.cpi                     0.993958                       # CPI: Cycles Per Instruction
system.switch_cpus_1.cpi_total               0.993958                       # CPI: Total CPI of All Threads
system.switch_cpus_1.decode.BlockedCycles    188177669                       # Number of cycles decode is blocked
system.switch_cpus_1.decode.DecodedInsts    383522776                       # Number of instructions handled by decode
system.switch_cpus_1.decode.IdleCycles       10326542                       # Number of cycles decode is idle
system.switch_cpus_1.decode.RunCycles        32580424                       # Number of cycles decode is running
system.switch_cpus_1.decode.SquashCycles        72427                       # Number of cycles decode is squashing
system.switch_cpus_1.decode.UnblockCycles     17329120                       # Number of cycles decode is unblocking
system.switch_cpus_1.dtb.rdAccesses         107800103                       # TLB accesses on read requests
system.switch_cpus_1.dtb.rdMisses                1351                       # TLB misses on read requests
system.switch_cpus_1.dtb.wrAccesses          38317743                       # TLB accesses on write requests
system.switch_cpus_1.dtb.wrMisses               11445                       # TLB misses on write requests
system.switch_cpus_1.fetch.Branches          12654886                       # Number of branches that fetch encountered
system.switch_cpus_1.fetch.CacheLines        19546194                       # Number of cache lines fetched
system.switch_cpus_1.fetch.Cycles           228834198                       # Number of cycles fetch has run and was not squashing or blocked
system.switch_cpus_1.fetch.IcacheSquashes         9316                       # Number of outstanding Icache misses that were squashed
system.switch_cpus_1.fetch.Insts            253565854                       # Number of instructions fetch has processed
system.switch_cpus_1.fetch.MiscStallCycles           28                       # Number of cycles fetch has spent waiting on interrupts, or bad addresses, or out of MSHRs
system.switch_cpus_1.fetch.PendingTrapStallCycles          169                       # Number of stall cycles due to pending traps
system.switch_cpus_1.fetch.SquashCycles        144854                       # Number of cycles fetch has spent squashing
system.switch_cpus_1.fetch.branchRate        0.050927                       # Number of branch fetches per cycle
system.switch_cpus_1.fetch.icacheStallCycles     19579370                       # Number of cycles fetch is stalled on an Icache miss
system.switch_cpus_1.fetch.predictedBranches      8275325                       # Number of branches that fetch has predicted taken
system.switch_cpus_1.fetch.rate              1.020429                       # Number of inst fetches per cycle
system.switch_cpus_1.fetch.rateDist::samples    248486192                       # Number of instructions fetched each cycle (Total)
system.switch_cpus_1.fetch.rateDist::mean     1.550098                       # Number of instructions fetched each cycle (Total)
system.switch_cpus_1.fetch.rateDist::stdev     2.936909                       # Number of instructions fetched each cycle (Total)
system.switch_cpus_1.fetch.rateDist::underflows            0      0.00%      0.00% # Number of instructions fetched each cycle (Total)
system.switch_cpus_1.fetch.rateDist::0      186154683     74.92%     74.92% # Number of instructions fetched each cycle (Total)
system.switch_cpus_1.fetch.rateDist::1        4219127      1.70%     76.61% # Number of instructions fetched each cycle (Total)
system.switch_cpus_1.fetch.rateDist::2        2393786      0.96%     77.58% # Number of instructions fetched each cycle (Total)
system.switch_cpus_1.fetch.rateDist::3        4910955      1.98%     79.55% # Number of instructions fetched each cycle (Total)
system.switch_cpus_1.fetch.rateDist::4        7925661      3.19%     82.74% # Number of instructions fetched each cycle (Total)
system.switch_cpus_1.fetch.rateDist::5        1232394      0.50%     83.24% # Number of instructions fetched each cycle (Total)
system.switch_cpus_1.fetch.rateDist::6        1761921      0.71%     83.95% # Number of instructions fetched each cycle (Total)
system.switch_cpus_1.fetch.rateDist::7        6099198      2.45%     86.40% # Number of instructions fetched each cycle (Total)
system.switch_cpus_1.fetch.rateDist::8       33788467     13.60%    100.00% # Number of instructions fetched each cycle (Total)
system.switch_cpus_1.fetch.rateDist::overflows            0      0.00%    100.00% # Number of instructions fetched each cycle (Total)
system.switch_cpus_1.fetch.rateDist::min_value            0                       # Number of instructions fetched each cycle (Total)
system.switch_cpus_1.fetch.rateDist::max_value            8                       # Number of instructions fetched each cycle (Total)
system.switch_cpus_1.fetch.rateDist::total    248486192                       # Number of instructions fetched each cycle (Total)
system.switch_cpus_1.fp_regfile_reads         1892297                       # number of floating regfile reads
system.switch_cpus_1.fp_regfile_writes         948558                       # number of floating regfile writes
system.switch_cpus_1.idleCycles                  3349                       # Total number of cycles that the CPU has spent unscheduled due to idling
system.switch_cpus_1.iew.branchMispredicts        88727                       # Number of branch mispredicts detected at execute
system.switch_cpus_1.iew.exec_branches       12197364                       # Number of branches executed
system.switch_cpus_1.iew.exec_nop                   0                       # number of nop insts executed
system.switch_cpus_1.iew.exec_rate           1.533691                       # Inst execution rate
system.switch_cpus_1.iew.exec_refs          146161312                       # number of memory reference insts executed
system.switch_cpus_1.iew.exec_stores         38317724                       # Number of stores executed
system.switch_cpus_1.iew.exec_swp                   0                       # number of swp insts executed
system.switch_cpus_1.iew.iewBlockCycles        851957                       # Number of cycles IEW is blocking
system.switch_cpus_1.iew.iewDispLoadInsts    107926289                       # Number of dispatched load instructions
system.switch_cpus_1.iew.iewDispNonSpecInsts          461                       # Number of dispatched non-speculative instructions
system.switch_cpus_1.iew.iewDispSquashedInsts          683                       # Number of squashed instructions skipped by dispatch
system.switch_cpus_1.iew.iewDispStoreInsts     38396555                       # Number of dispatched store instructions
system.switch_cpus_1.iew.iewDispatchedInsts    382499191                       # Number of instructions dispatched to IQ
system.switch_cpus_1.iew.iewExecLoadInsts    107843588                       # Number of load instructions executed
system.switch_cpus_1.iew.iewExecSquashedInsts       137325                       # Number of squashed instructions skipped in execute
system.switch_cpus_1.iew.iewExecutedInsts    381106147                       # Number of executed instructions
system.switch_cpus_1.iew.iewIQFullEvents        20630                       # Number of times the IQ has become full, causing a stall
system.switch_cpus_1.iew.iewIdleCycles              0                       # Number of cycles IEW is idle
system.switch_cpus_1.iew.iewLSQFullEvents     42633962                       # Number of times the LSQ has become full, causing a stall
system.switch_cpus_1.iew.iewSquashCycles        72427                       # Number of cycles IEW is squashing
system.switch_cpus_1.iew.iewUnblockCycles     42672856                       # Number of cycles IEW is unblocking
system.switch_cpus_1.iew.lsq.thread0.blockedLoads            0                       # Number of blocked loads due to partial load-store forwarding
system.switch_cpus_1.iew.lsq.thread0.cacheBlocked        10638                       # Number of times an access to memory failed due to the cache being blocked
system.switch_cpus_1.iew.lsq.thread0.forwLoads      7032122                       # Number of loads that had data forwarded from stores
system.switch_cpus_1.iew.lsq.thread0.ignoredResponses         1573                       # Number of memory responses ignored because the instruction is squashed
system.switch_cpus_1.iew.lsq.thread0.invAddrLoads            0                       # Number of loads ignored due to an invalid address
system.switch_cpus_1.iew.lsq.thread0.invAddrSwpfs            0                       # Number of software prefetches ignored due to an invalid address
system.switch_cpus_1.iew.lsq.thread0.memOrderViolation         3626                       # Number of memory ordering violations
system.switch_cpus_1.iew.lsq.thread0.rescheduledLoads           35                       # Number of loads that were rescheduled
system.switch_cpus_1.iew.lsq.thread0.squashedLoads       651721                       # Number of loads squashed
system.switch_cpus_1.iew.lsq.thread0.squashedStores       142986                       # Number of stores squashed
system.switch_cpus_1.iew.memOrderViolationEvents         3626                       # Number of memory order violations
system.switch_cpus_1.iew.predictedNotTakenIncorrect        57416                       # Number of branches that were predicted not taken incorrectly
system.switch_cpus_1.iew.predictedTakenIncorrect        31311                       # Number of branches that were predicted taken incorrectly
system.switch_cpus_1.iew.wb_consumers       640224133                       # num instructions consuming a value
system.switch_cpus_1.iew.wb_count           380918048                       # cumulative count of insts written-back
system.switch_cpus_1.iew.wb_fanout           0.497772                       # average fanout of values written-back
system.switch_cpus_1.iew.wb_producers       318685762                       # num instructions producing a value
system.switch_cpus_1.iew.wb_rate             1.532934                       # insts written-back per cycle
system.switch_cpus_1.iew.wb_sent            380965107                       # cumulative count of insts sent to commit
system.switch_cpus_1.int_regfile_reads      774005472                       # number of integer regfile reads
system.switch_cpus_1.int_regfile_writes     329390452                       # number of integer regfile writes
system.switch_cpus_1.ipc                     1.006079                       # IPC: Instructions Per Cycle
system.switch_cpus_1.ipc_total               1.006079                       # IPC: Total IPC of All Threads
system.switch_cpus_1.iq.FU_type_0::No_OpClass        90190      0.02%      0.02% # Type of FU issued
system.switch_cpus_1.iq.FU_type_0::IntAlu    233982192     61.37%     61.40% # Type of FU issued
system.switch_cpus_1.iq.FU_type_0::IntMult       103520      0.03%     61.42% # Type of FU issued
system.switch_cpus_1.iq.FU_type_0::IntDiv            0      0.00%     61.42% # Type of FU issued
system.switch_cpus_1.iq.FU_type_0::FloatAdd        50010      0.01%     61.44% # Type of FU issued
system.switch_cpus_1.iq.FU_type_0::FloatCmp            0      0.00%     61.44% # Type of FU issued
system.switch_cpus_1.iq.FU_type_0::FloatCvt          327      0.00%     61.44% # Type of FU issued
system.switch_cpus_1.iq.FU_type_0::FloatMult            0      0.00%     61.44% # Type of FU issued
system.switch_cpus_1.iq.FU_type_0::FloatMultAcc            0      0.00%     61.44% # Type of FU issued
system.switch_cpus_1.iq.FU_type_0::FloatDiv            0      0.00%     61.44% # Type of FU issued
system.switch_cpus_1.iq.FU_type_0::FloatMisc            0      0.00%     61.44% # Type of FU issued
system.switch_cpus_1.iq.FU_type_0::FloatSqrt            0      0.00%     61.44% # Type of FU issued
system.switch_cpus_1.iq.FU_type_0::SimdAdd            0      0.00%     61.44% # Type of FU issued
system.switch_cpus_1.iq.FU_type_0::SimdAddAcc            0      0.00%     61.44% # Type of FU issued
system.switch_cpus_1.iq.FU_type_0::SimdAlu        66577      0.02%     61.45% # Type of FU issued
system.switch_cpus_1.iq.FU_type_0::SimdCmp            0      0.00%     61.45% # Type of FU issued
system.switch_cpus_1.iq.FU_type_0::SimdCvt        61668      0.02%     61.47% # Type of FU issued
system.switch_cpus_1.iq.FU_type_0::SimdMisc       183221      0.05%     61.52% # Type of FU issued
system.switch_cpus_1.iq.FU_type_0::SimdMult            0      0.00%     61.52% # Type of FU issued
system.switch_cpus_1.iq.FU_type_0::SimdMultAcc            0      0.00%     61.52% # Type of FU issued
system.switch_cpus_1.iq.FU_type_0::SimdShift            0      0.00%     61.52% # Type of FU issued
system.switch_cpus_1.iq.FU_type_0::SimdShiftAcc            0      0.00%     61.52% # Type of FU issued
system.switch_cpus_1.iq.FU_type_0::SimdDiv            0      0.00%     61.52% # Type of FU issued
system.switch_cpus_1.iq.FU_type_0::SimdSqrt            0      0.00%     61.52% # Type of FU issued
system.switch_cpus_1.iq.FU_type_0::SimdFloatAdd       199253      0.05%     61.57% # Type of FU issued
system.switch_cpus_1.iq.FU_type_0::SimdFloatAlu            0      0.00%     61.57% # Type of FU issued
system.switch_cpus_1.iq.FU_type_0::SimdFloatCmp           60      0.00%     61.57% # Type of FU issued
system.switch_cpus_1.iq.FU_type_0::SimdFloatCvt       227546      0.06%     61.63% # Type of FU issued
system.switch_cpus_1.iq.FU_type_0::SimdFloatDiv        32944      0.01%     61.64% # Type of FU issued
system.switch_cpus_1.iq.FU_type_0::SimdFloatMisc            0      0.00%     61.64% # Type of FU issued
system.switch_cpus_1.iq.FU_type_0::SimdFloatMult        15605      0.00%     61.64% # Type of FU issued
system.switch_cpus_1.iq.FU_type_0::SimdFloatMultAcc            0      0.00%     61.64% # Type of FU issued
system.switch_cpus_1.iq.FU_type_0::SimdFloatSqrt            0      0.00%     61.64% # Type of FU issued
system.switch_cpus_1.iq.FU_type_0::SimdReduceAdd            0      0.00%     61.64% # Type of FU issued
system.switch_cpus_1.iq.FU_type_0::SimdReduceAlu            0      0.00%     61.64% # Type of FU issued
system.switch_cpus_1.iq.FU_type_0::SimdReduceCmp            0      0.00%     61.64% # Type of FU issued
system.switch_cpus_1.iq.FU_type_0::SimdFloatReduceAdd            0      0.00%     61.64% # Type of FU issued
system.switch_cpus_1.iq.FU_type_0::SimdFloatReduceCmp            0      0.00%     61.64% # Type of FU issued
system.switch_cpus_1.iq.FU_type_0::SimdAes            0      0.00%     61.64% # Type of FU issued
system.switch_cpus_1.iq.FU_type_0::SimdAesMix            0      0.00%     61.64% # Type of FU issued
system.switch_cpus_1.iq.FU_type_0::SimdSha1Hash            0      0.00%     61.64% # Type of FU issued
system.switch_cpus_1.iq.FU_type_0::SimdSha1Hash2            0      0.00%     61.64% # Type of FU issued
system.switch_cpus_1.iq.FU_type_0::SimdSha256Hash            0      0.00%     61.64% # Type of FU issued
system.switch_cpus_1.iq.FU_type_0::SimdSha256Hash2            0      0.00%     61.64% # Type of FU issued
system.switch_cpus_1.iq.FU_type_0::SimdShaSigma2            0      0.00%     61.64% # Type of FU issued
system.switch_cpus_1.iq.FU_type_0::SimdShaSigma3            0      0.00%     61.64% # Type of FU issued
system.switch_cpus_1.iq.FU_type_0::SimdPredAlu            0      0.00%     61.64% # Type of FU issued
system.switch_cpus_1.iq.FU_type_0::MemRead    107605922     28.22%     89.87% # Type of FU issued
system.switch_cpus_1.iq.FU_type_0::MemWrite     38320357     10.05%     99.92% # Type of FU issued
system.switch_cpus_1.iq.FU_type_0::FloatMemRead       303091      0.08%    100.00% # Type of FU issued
system.switch_cpus_1.iq.FU_type_0::FloatMemWrite          992      0.00%    100.00% # Type of FU issued
system.switch_cpus_1.iq.FU_type_0::IprAccess            0      0.00%    100.00% # Type of FU issued
system.switch_cpus_1.iq.FU_type_0::InstPrefetch            0      0.00%    100.00% # Type of FU issued
system.switch_cpus_1.iq.FU_type_0::total    381243475                       # Type of FU issued
system.switch_cpus_1.iq.fp_alu_accesses       1208532                       # Number of floating point alu accesses
system.switch_cpus_1.iq.fp_inst_queue_reads      2407759                       # Number of floating instruction queue reads
system.switch_cpus_1.iq.fp_inst_queue_wakeup_accesses      1171103                       # Number of floating instruction queue wakeup accesses
system.switch_cpus_1.iq.fp_inst_queue_writes      1785869                       # Number of floating instruction queue writes
system.switch_cpus_1.iq.fu_busy_cnt           1955100                       # FU busy when requested
system.switch_cpus_1.iq.fu_busy_rate         0.005128                       # FU busy rate (busy events/executed inst)
system.switch_cpus_1.iq.fu_full::No_OpClass            0      0.00%      0.00% # attempts to use FU when none available
system.switch_cpus_1.iq.fu_full::IntAlu        206108     10.54%     10.54% # attempts to use FU when none available
system.switch_cpus_1.iq.fu_full::IntMult            0      0.00%     10.54% # attempts to use FU when none available
system.switch_cpus_1.iq.fu_full::IntDiv             0      0.00%     10.54% # attempts to use FU when none available
system.switch_cpus_1.iq.fu_full::FloatAdd            0      0.00%     10.54% # attempts to use FU when none available
system.switch_cpus_1.iq.fu_full::FloatCmp            0      0.00%     10.54% # attempts to use FU when none available
system.switch_cpus_1.iq.fu_full::FloatCvt            6      0.00%     10.54% # attempts to use FU when none available
system.switch_cpus_1.iq.fu_full::FloatMult            0      0.00%     10.54% # attempts to use FU when none available
system.switch_cpus_1.iq.fu_full::FloatMultAcc            0      0.00%     10.54% # attempts to use FU when none available
system.switch_cpus_1.iq.fu_full::FloatDiv            0      0.00%     10.54% # attempts to use FU when none available
system.switch_cpus_1.iq.fu_full::FloatMisc            0      0.00%     10.54% # attempts to use FU when none available
system.switch_cpus_1.iq.fu_full::FloatSqrt            0      0.00%     10.54% # attempts to use FU when none available
system.switch_cpus_1.iq.fu_full::SimdAdd            0      0.00%     10.54% # attempts to use FU when none available
system.switch_cpus_1.iq.fu_full::SimdAddAcc            0      0.00%     10.54% # attempts to use FU when none available
system.switch_cpus_1.iq.fu_full::SimdAlu            0      0.00%     10.54% # attempts to use FU when none available
system.switch_cpus_1.iq.fu_full::SimdCmp            0      0.00%     10.54% # attempts to use FU when none available
system.switch_cpus_1.iq.fu_full::SimdCvt            0      0.00%     10.54% # attempts to use FU when none available
system.switch_cpus_1.iq.fu_full::SimdMisc            1      0.00%     10.54% # attempts to use FU when none available
system.switch_cpus_1.iq.fu_full::SimdMult            0      0.00%     10.54% # attempts to use FU when none available
system.switch_cpus_1.iq.fu_full::SimdMultAcc            0      0.00%     10.54% # attempts to use FU when none available
system.switch_cpus_1.iq.fu_full::SimdShift            0      0.00%     10.54% # attempts to use FU when none available
system.switch_cpus_1.iq.fu_full::SimdShiftAcc            0      0.00%     10.54% # attempts to use FU when none available
system.switch_cpus_1.iq.fu_full::SimdDiv            0      0.00%     10.54% # attempts to use FU when none available
system.switch_cpus_1.iq.fu_full::SimdSqrt            0      0.00%     10.54% # attempts to use FU when none available
system.switch_cpus_1.iq.fu_full::SimdFloatAdd         2806      0.14%     10.69% # attempts to use FU when none available
system.switch_cpus_1.iq.fu_full::SimdFloatAlu            0      0.00%     10.69% # attempts to use FU when none available
system.switch_cpus_1.iq.fu_full::SimdFloatCmp            0      0.00%     10.69% # attempts to use FU when none available
system.switch_cpus_1.iq.fu_full::SimdFloatCvt         6661      0.34%     11.03% # attempts to use FU when none available
system.switch_cpus_1.iq.fu_full::SimdFloatDiv            0      0.00%     11.03% # attempts to use FU when none available
system.switch_cpus_1.iq.fu_full::SimdFloatMisc            0      0.00%     11.03% # attempts to use FU when none available
system.switch_cpus_1.iq.fu_full::SimdFloatMult            0      0.00%     11.03% # attempts to use FU when none available
system.switch_cpus_1.iq.fu_full::SimdFloatMultAcc            0      0.00%     11.03% # attempts to use FU when none available
system.switch_cpus_1.iq.fu_full::SimdFloatSqrt            0      0.00%     11.03% # attempts to use FU when none available
system.switch_cpus_1.iq.fu_full::SimdReduceAdd            0      0.00%     11.03% # attempts to use FU when none available
system.switch_cpus_1.iq.fu_full::SimdReduceAlu            0      0.00%     11.03% # attempts to use FU when none available
system.switch_cpus_1.iq.fu_full::SimdReduceCmp            0      0.00%     11.03% # attempts to use FU when none available
system.switch_cpus_1.iq.fu_full::SimdFloatReduceAdd            0      0.00%     11.03% # attempts to use FU when none available
system.switch_cpus_1.iq.fu_full::SimdFloatReduceCmp            0      0.00%     11.03% # attempts to use FU when none available
system.switch_cpus_1.iq.fu_full::SimdAes            0      0.00%     11.03% # attempts to use FU when none available
system.switch_cpus_1.iq.fu_full::SimdAesMix            0      0.00%     11.03% # attempts to use FU when none available
system.switch_cpus_1.iq.fu_full::SimdSha1Hash            0      0.00%     11.03% # attempts to use FU when none available
system.switch_cpus_1.iq.fu_full::SimdSha1Hash2            0      0.00%     11.03% # attempts to use FU when none available
system.switch_cpus_1.iq.fu_full::SimdSha256Hash            0      0.00%     11.03% # attempts to use FU when none available
system.switch_cpus_1.iq.fu_full::SimdSha256Hash2            0      0.00%     11.03% # attempts to use FU when none available
system.switch_cpus_1.iq.fu_full::SimdShaSigma2            0      0.00%     11.03% # attempts to use FU when none available
system.switch_cpus_1.iq.fu_full::SimdShaSigma3            0      0.00%     11.03% # attempts to use FU when none available
system.switch_cpus_1.iq.fu_full::SimdPredAlu            0      0.00%     11.03% # attempts to use FU when none available
system.switch_cpus_1.iq.fu_full::MemRead      1737357     88.86%     99.89% # attempts to use FU when none available
system.switch_cpus_1.iq.fu_full::MemWrite         2017      0.10%     99.99% # attempts to use FU when none available
system.switch_cpus_1.iq.fu_full::FloatMemRead          131      0.01%    100.00% # attempts to use FU when none available
system.switch_cpus_1.iq.fu_full::FloatMemWrite           13      0.00%    100.00% # attempts to use FU when none available
system.switch_cpus_1.iq.fu_full::IprAccess            0      0.00%    100.00% # attempts to use FU when none available
system.switch_cpus_1.iq.fu_full::InstPrefetch            0      0.00%    100.00% # attempts to use FU when none available
system.switch_cpus_1.iq.int_alu_accesses    381899853                       # Number of integer alu accesses
system.switch_cpus_1.iq.int_inst_queue_reads   1010593796                       # Number of integer instruction queue reads
system.switch_cpus_1.iq.int_inst_queue_wakeup_accesses    379746945                       # Number of integer instruction queue wakeup accesses
system.switch_cpus_1.iq.int_inst_queue_writes    384340021                       # Number of integer instruction queue writes
system.switch_cpus_1.iq.iqInstsAdded        382497825                       # Number of instructions added to the IQ (excludes non-spec)
system.switch_cpus_1.iq.iqInstsIssued       381243475                       # Number of instructions issued
system.switch_cpus_1.iq.iqNonSpecInstsAdded         1366                       # Number of non-speculative instructions added to the IQ
system.switch_cpus_1.iq.iqSquashedInstsExamined      3623173                       # Number of squashed instructions iterated over during squash; mainly for profiling
system.switch_cpus_1.iq.iqSquashedInstsIssued        73316                       # Number of squashed instructions issued
system.switch_cpus_1.iq.iqSquashedNonSpecRemoved         1366                       # Number of squashed non-spec instructions that were removed
system.switch_cpus_1.iq.iqSquashedOperandsExamined      5945270                       # Number of squashed operands that are examined and possibly removed from graph
system.switch_cpus_1.iq.issued_per_cycle::samples    248486192                       # Number of insts issued each cycle
system.switch_cpus_1.iq.issued_per_cycle::mean     1.534264                       # Number of insts issued each cycle
system.switch_cpus_1.iq.issued_per_cycle::stdev     2.075200                       # Number of insts issued each cycle
system.switch_cpus_1.iq.issued_per_cycle::underflows            0      0.00%      0.00% # Number of insts issued each cycle
system.switch_cpus_1.iq.issued_per_cycle::0    136615617     54.98%     54.98% # Number of insts issued each cycle
system.switch_cpus_1.iq.issued_per_cycle::1     15369197      6.19%     61.16% # Number of insts issued each cycle
system.switch_cpus_1.iq.issued_per_cycle::2     26217607     10.55%     71.72% # Number of insts issued each cycle
system.switch_cpus_1.iq.issued_per_cycle::3     22332597      8.99%     80.70% # Number of insts issued each cycle
system.switch_cpus_1.iq.issued_per_cycle::4     19062060      7.67%     88.37% # Number of insts issued each cycle
system.switch_cpus_1.iq.issued_per_cycle::5     12502964      5.03%     93.41% # Number of insts issued each cycle
system.switch_cpus_1.iq.issued_per_cycle::6      9336855      3.76%     97.16% # Number of insts issued each cycle
system.switch_cpus_1.iq.issued_per_cycle::7      4737277      1.91%     99.07% # Number of insts issued each cycle
system.switch_cpus_1.iq.issued_per_cycle::8      2312018      0.93%    100.00% # Number of insts issued each cycle
system.switch_cpus_1.iq.issued_per_cycle::overflows            0      0.00%    100.00% # Number of insts issued each cycle
system.switch_cpus_1.iq.issued_per_cycle::min_value            0                       # Number of insts issued each cycle
system.switch_cpus_1.iq.issued_per_cycle::max_value            8                       # Number of insts issued each cycle
system.switch_cpus_1.iq.issued_per_cycle::total    248486192                       # Number of insts issued each cycle
system.switch_cpus_1.iq.rate                 1.534244                       # Inst issue rate
system.switch_cpus_1.iq.vec_alu_accesses            0                       # Number of vector alu accesses
system.switch_cpus_1.iq.vec_inst_queue_reads            0                       # Number of vector instruction queue reads
system.switch_cpus_1.iq.vec_inst_queue_wakeup_accesses            0                       # Number of vector instruction queue wakeup accesses
system.switch_cpus_1.iq.vec_inst_queue_writes            0                       # Number of vector instruction queue writes
system.switch_cpus_1.itb.rdAccesses                 0                       # TLB accesses on read requests
system.switch_cpus_1.itb.rdMisses                   0                       # TLB misses on read requests
system.switch_cpus_1.itb.wrAccesses          19546223                       # TLB accesses on write requests
system.switch_cpus_1.itb.wrMisses                  45                       # TLB misses on write requests
system.switch_cpus_1.memDep0.conflictingLoads      5196797                       # Number of conflicting loads.
system.switch_cpus_1.memDep0.conflictingStores      6715760                       # Number of conflicting stores.
system.switch_cpus_1.memDep0.insertedLoads    107926289                       # Number of loads inserted to the mem dependence unit.
system.switch_cpus_1.memDep0.insertedStores     38396555                       # Number of stores inserted to the mem dependence unit.
system.switch_cpus_1.misc_regfile_reads     170757613                       # number of misc regfile reads
system.switch_cpus_1.numCycles              248489541                       # number of cpu cycles simulated
system.switch_cpus_1.numWorkItemsCompleted            0                       # number of work items this cpu completed
system.switch_cpus_1.numWorkItemsStarted            0                       # number of work items this cpu started
system.switch_cpus_1.rename.BlockCycles      45262201                       # Number of cycles rename is blocking
system.switch_cpus_1.rename.CommittedMaps    527844134                       # Number of HB maps that are committed
system.switch_cpus_1.rename.IQFullEvents      2059267                       # Number of times rename has blocked due to IQ full
system.switch_cpus_1.rename.IdleCycles       17747949                       # Number of cycles rename is idle
system.switch_cpus_1.rename.LQFullEvents     32163456                       # Number of times rename has blocked due to LQ full
system.switch_cpus_1.rename.ROBFullEvents      1627234                       # Number of times rename has blocked due to ROB full
system.switch_cpus_1.rename.RenameLookups   1356293574                       # Number of register rename lookups that rename has made
system.switch_cpus_1.rename.RenamedInsts    383064046                       # Number of instructions processed by rename
system.switch_cpus_1.rename.RenamedOperands    533374862                       # Number of destination operands rename has renamed
system.switch_cpus_1.rename.RunCycles        42438133                       # Number of cycles rename is running
system.switch_cpus_1.rename.SQFullEvents    102691393                       # Number of times rename has blocked due to SQ full
system.switch_cpus_1.rename.SquashCycles        72427                       # Number of cycles rename is squashing
system.switch_cpus_1.rename.UnblockCycles    142965473                       # Number of cycles rename is unblocking
system.switch_cpus_1.rename.UndoneMaps        5530600                       # Number of HB maps that are undone due to squashing
system.switch_cpus_1.rename.fp_rename_lookups      2317922                       # Number of floating rename lookups
system.switch_cpus_1.rename.int_rename_lookups    777262204                       # Number of integer rename lookups
system.switch_cpus_1.rename.serializeStallCycles            0                       # count of cycles rename stalled for serializing inst
system.switch_cpus_1.rename.serializingInsts            0                       # count of serializing insts renamed
system.switch_cpus_1.rename.skidInsts       101692530                       # count of insts added to the skid buffer
system.switch_cpus_1.rename.tempSerializingInsts            0                       # count of temporary serializing insts renamed
system.switch_cpus_1.rob.rob_reads          603420139                       # The number of ROB reads
system.switch_cpus_1.rob.rob_writes         765518405                       # The number of ROB writes
system.switch_cpus_1.timesIdled                    28                       # Number of times that the entire CPU went into an idle state and unscheduled itself
system.tol2bus.snoop_filter.hit_multi_requests            5                       # Number of requests hitting in the snoop filter with multiple (>1) holders of the requested data.
system.tol2bus.snoop_filter.hit_multi_snoops            0                       # Number of snoops hitting in the snoop filter with multiple (>1) holders of the requested data.
system.tol2bus.snoop_filter.hit_single_requests      1494280                       # Number of requests hitting in the snoop filter with a single holder of the requested data.
system.tol2bus.snoop_filter.hit_single_snoops       476316                       # Number of snoops hitting in the snoop filter with a single holder of the requested data.
system.tol2bus.snoop_filter.tot_requests      2984694                       # Total number of requests made to the snoop filter.
system.tol2bus.snoop_filter.tot_snoops         476316                       # Total number of snoops made to the snoop filter.
system.tol3bus.snoop_filter.hit_multi_requests            0                       # Number of requests hitting in the snoop filter with multiple (>1) holders of the requested data.
system.tol3bus.snoop_filter.hit_multi_snoops            0                       # Number of snoops hitting in the snoop filter with multiple (>1) holders of the requested data.
system.tol3bus.snoop_filter.hit_single_requests      1325162                       # Number of requests hitting in the snoop filter with a single holder of the requested data.
system.tol3bus.snoop_filter.hit_single_snoops       667151                       # Number of snoops hitting in the snoop filter with a single holder of the requested data.
system.tol3bus.snoop_filter.tot_requests      2648998                       # Total number of requests made to the snoop filter.
system.tol3bus.snoop_filter.tot_snoops         667151                       # Total number of snoops made to the snoop filter.
system.membus.trans_dist::ReadResp               6852                       # Transaction distribution
system.membus.trans_dist::WritebackDirty       684598                       # Transaction distribution
system.membus.trans_dist::CleanEvict             6348                       # Transaction distribution
system.membus.trans_dist::UpgradeReq               30                       # Transaction distribution
system.membus.trans_dist::ReadExReq            683139                       # Transaction distribution
system.membus.trans_dist::ReadExResp           683139                       # Transaction distribution
system.membus.trans_dist::ReadSharedReq          6852                       # Transaction distribution
system.membus.pkt_count_system.l3.mem_side::system.mem_ctrls.port      2070958                       # Packet count per connected master and slave (bytes)
system.membus.pkt_count_system.l3.mem_side::total      2070958                       # Packet count per connected master and slave (bytes)
system.membus.pkt_count::total                2070958                       # Packet count per connected master and slave (bytes)
system.membus.pkt_size_system.l3.mem_side::system.mem_ctrls.port     87973696                       # Cumulative packet size per connected master and slave (bytes)
system.membus.pkt_size_system.l3.mem_side::total     87973696                       # Cumulative packet size per connected master and slave (bytes)
system.membus.pkt_size::total                87973696                       # Cumulative packet size per connected master and slave (bytes)
system.membus.snoops                                0                       # Total snoops (count)
system.membus.snoopTraffic                          0                       # Total snoop traffic (bytes)
system.membus.snoop_fanout::samples            690021                       # Request fanout histogram
system.membus.snoop_fanout::mean                    0                       # Request fanout histogram
system.membus.snoop_fanout::stdev                   0                       # Request fanout histogram
system.membus.snoop_fanout::underflows              0      0.00%      0.00% # Request fanout histogram
system.membus.snoop_fanout::0                  690021    100.00%    100.00% # Request fanout histogram
system.membus.snoop_fanout::1                       0      0.00%    100.00% # Request fanout histogram
system.membus.snoop_fanout::overflows               0      0.00%    100.00% # Request fanout histogram
system.membus.snoop_fanout::min_value               0                       # Request fanout histogram
system.membus.snoop_fanout::max_value               0                       # Request fanout histogram
system.membus.snoop_fanout::total              690021                       # Request fanout histogram
system.membus.reqLayer2.occupancy          4330863000                       # Layer occupancy (ticks)
system.membus.reqLayer2.utilization               3.5                       # Layer utilization (%)
system.membus.respLayer1.occupancy         3679519250                       # Layer occupancy (ticks)
system.membus.respLayer1.utilization              3.0                       # Layer utilization (%)
system.membus.power_state.pwrStateResidencyTicks::UNDEFINED 1193620301000                       # Cumulative time (in ticks) in various power states
system.switch_cpus_1.dtb.walker.power_state.pwrStateResidencyTicks::UNDEFINED 1193620301000                       # Cumulative time (in ticks) in various power states
system.switch_cpus_1.itb.walker.power_state.pwrStateResidencyTicks::UNDEFINED 1193620301000                       # Cumulative time (in ticks) in various power states
system.switch_cpus_1.power_state.pwrStateResidencyTicks::OFF 1193620301000                       # Cumulative time (in ticks) in various power states
system.switch_cpus.dtb.walker.power_state.pwrStateResidencyTicks::UNDEFINED 1193620301000                       # Cumulative time (in ticks) in various power states
system.switch_cpus.itb.walker.power_state.pwrStateResidencyTicks::UNDEFINED 1193620301000                       # Cumulative time (in ticks) in various power states
system.switch_cpus.power_state.numTransitions            1                       # Number of power state transitions
system.switch_cpus.power_state.pwrStateResidencyTicks::OFF 1193620301000                       # Cumulative time (in ticks) in various power states
system.tol2bus.trans_dist::ReadResp            767908                       # Transaction distribution
system.tol2bus.trans_dist::WritebackDirty      1448545                       # Transaction distribution
system.tol2bus.trans_dist::WritebackClean           68                       # Transaction distribution
system.tol2bus.trans_dist::CleanEvict         1431160                       # Transaction distribution
system.tol2bus.trans_dist::UpgradeReq            3867                       # Transaction distribution
system.tol2bus.trans_dist::UpgradeResp           3867                       # Transaction distribution
system.tol2bus.trans_dist::ReadExReq           722506                       # Transaction distribution
system.tol2bus.trans_dist::ReadExResp          722505                       # Transaction distribution
system.tol2bus.trans_dist::ReadCleanReq        767908                       # Transaction distribution
system.tol2bus.pkt_count_system.cpu.icache.mem_side::system.l2.cpu_side          204                       # Packet count per connected master and slave (bytes)
system.tol2bus.pkt_count_system.cpu.dcache.mem_side::system.l2.cpu_side      4478770                       # Packet count per connected master and slave (bytes)
system.tol2bus.pkt_count::total               4478974                       # Packet count per connected master and slave (bytes)
system.tol2bus.pkt_size_system.cpu.icache.mem_side::system.l2.cpu_side         8704                       # Cumulative packet size per connected master and slave (bytes)
system.tol2bus.pkt_size_system.cpu.dcache.mem_side::system.l2.cpu_side    141871424                       # Cumulative packet size per connected master and slave (bytes)
system.tol2bus.pkt_size::total              141880128                       # Cumulative packet size per connected master and slave (bytes)
system.tol2bus.snoops                         1389360                       # Total snoops (count)
system.tol2bus.snoopTraffic                  46217536                       # Total snoop traffic (bytes)
system.tol2bus.snoop_fanout::samples          2883641                       # Request fanout histogram
system.tol2bus.snoop_fanout::mean            0.165180                       # Request fanout histogram
system.tol2bus.snoop_fanout::stdev           0.371343                       # Request fanout histogram
system.tol2bus.snoop_fanout::underflows             0      0.00%      0.00% # Request fanout histogram
system.tol2bus.snoop_fanout::0                2407320     83.48%     83.48% # Request fanout histogram
system.tol2bus.snoop_fanout::1                 476321     16.52%    100.00% # Request fanout histogram
system.tol2bus.snoop_fanout::2                      0      0.00%    100.00% # Request fanout histogram
system.tol2bus.snoop_fanout::3                      0      0.00%    100.00% # Request fanout histogram
system.tol2bus.snoop_fanout::4                      0      0.00%    100.00% # Request fanout histogram
system.tol2bus.snoop_fanout::overflows              0      0.00%    100.00% # Request fanout histogram
system.tol2bus.snoop_fanout::min_value              0                       # Request fanout histogram
system.tol2bus.snoop_fanout::max_value              1                       # Request fanout histogram
system.tol2bus.snoop_fanout::total            2883641                       # Request fanout histogram
system.tol2bus.reqLayer0.occupancy         2218811000                       # Layer occupancy (ticks)
system.tol2bus.reqLayer0.utilization              1.8                       # Layer utilization (%)
system.tol2bus.respLayer1.occupancy        2237451000                       # Layer occupancy (ticks)
system.tol2bus.respLayer1.utilization             1.8                       # Layer utilization (%)
system.tol2bus.respLayer0.occupancy            102000                       # Layer occupancy (ticks)
system.tol2bus.respLayer0.utilization             0.0                       # Layer utilization (%)
system.tol2bus.power_state.pwrStateResidencyTicks::UNDEFINED 1193620301000                       # Cumulative time (in ticks) in various power states
system.voltage_domain.voltage                       1                       # Voltage in Volts
system.clk_domain.clock                          1000                       # Clock period in ticks
system.l2.demand_hits::.switch_cpus_1.data       166572                       # number of demand (read+write) hits
system.l2.demand_hits::total                   166572                       # number of demand (read+write) hits
system.l2.overall_hits::.switch_cpus_1.data       166572                       # number of overall hits
system.l2.overall_hits::total                  166572                       # number of overall hits
system.l2.demand_misses::.switch_cpus_1.inst           68                       # number of demand (read+write) misses
system.l2.demand_misses::.switch_cpus_1.data      1323774                       # number of demand (read+write) misses
system.l2.demand_misses::total                1323842                       # number of demand (read+write) misses
system.l2.overall_misses::.switch_cpus_1.inst           68                       # number of overall misses
system.l2.overall_misses::.switch_cpus_1.data      1323774                       # number of overall misses
system.l2.overall_misses::total               1323842                       # number of overall misses
system.l2.demand_miss_latency::.switch_cpus_1.inst      7842500                       # number of demand (read+write) miss cycles
system.l2.demand_miss_latency::.switch_cpus_1.data  84623673500                       # number of demand (read+write) miss cycles
system.l2.demand_miss_latency::total      84631516000                       # number of demand (read+write) miss cycles
system.l2.overall_miss_latency::.switch_cpus_1.inst      7842500                       # number of overall miss cycles
system.l2.overall_miss_latency::.switch_cpus_1.data  84623673500                       # number of overall miss cycles
system.l2.overall_miss_latency::total     84631516000                       # number of overall miss cycles
system.l2.demand_accesses::.switch_cpus_1.inst           68                       # number of demand (read+write) accesses
system.l2.demand_accesses::.switch_cpus_1.data      1490346                       # number of demand (read+write) accesses
system.l2.demand_accesses::total              1490414                       # number of demand (read+write) accesses
system.l2.overall_accesses::.switch_cpus_1.inst           68                       # number of overall (read+write) accesses
system.l2.overall_accesses::.switch_cpus_1.data      1490346                       # number of overall (read+write) accesses
system.l2.overall_accesses::total             1490414                       # number of overall (read+write) accesses
system.l2.demand_miss_rate::.switch_cpus_1.inst            1                       # miss rate for demand accesses
system.l2.demand_miss_rate::.switch_cpus_1.data     0.888233                       # miss rate for demand accesses
system.l2.demand_miss_rate::total            0.888238                       # miss rate for demand accesses
system.l2.overall_miss_rate::.switch_cpus_1.inst            1                       # miss rate for overall accesses
system.l2.overall_miss_rate::.switch_cpus_1.data     0.888233                       # miss rate for overall accesses
system.l2.overall_miss_rate::total           0.888238                       # miss rate for overall accesses
system.l2.demand_avg_miss_latency::.switch_cpus_1.inst 115330.882353                       # average overall miss latency
[...]
system.cpu.dcache.demand_miss_latency::.switch_cpus.data  18570650000                       # number of demand (read+write) miss cycles
system.cpu.dcache.demand_miss_latency::.switch_cpus_1.data 105475092836                       # number of demand (read+write) miss cycles
system.cpu.dcache.demand_miss_latency::total 124045742836                       # number of demand (read+write) miss cycles
system.cpu.dcache.overall_miss_latency::.switch_cpus.data  18570650000                       # number of overall miss cycles
system.cpu.dcache.overall_miss_latency::.switch_cpus_1.data 105475092836                       # number of overall miss cycles
system.cpu.dcache.overall_miss_latency::total 124045742836                       # number of overall miss cycles
system.cpu.dcache.demand_accesses::.cpu.data    578989745                       # number of demand (read+write) accesses
system.cpu.dcache.demand_accesses::.switch_cpus.data     29125033                       # number of demand (read+write) accesses
system.cpu.dcache.demand_accesses::.switch_cpus_1.data    139020086                       # number of demand (read+write) accesses
system.cpu.dcache.demand_accesses::total    747134864                       # number of demand (read+write) accesses
system.cpu.dcache.overall_accesses::.cpu.data    578989745                       # number of overall (read+write) accesses
system.cpu.dcache.overall_accesses::.switch_cpus.data     29125033                       # number of overall (read+write) accesses
system.cpu.dcache.overall_accesses::.switch_cpus_1.data    139020086                       # number of overall (read+write) accesses
system.cpu.dcache.overall_accesses::total    747134864                       # number of overall (read+write) accesses
system.cpu.dcache.demand_miss_rate::.cpu.data     0.010570                       # miss rate for demand accesses
system.cpu.dcache.demand_miss_rate::.switch_cpus.data     0.010723                       # miss rate for demand accesses
system.cpu.dcache.demand_miss_rate::.switch_cpus_1.data     0.017452                       # miss rate for demand accesses
system.cpu.dcache.demand_miss_rate::total     0.011856                       # miss rate for demand accesses
system.cpu.dcache.overall_miss_rate::.cpu.data     0.010570                       # miss rate for overall accesses
system.cpu.dcache.overall_miss_rate::.switch_cpus.data     0.010723                       # miss rate for overall accesses
system.cpu.dcache.overall_miss_rate::.switch_cpus_1.data     0.017452                       # miss rate for overall accesses
system.cpu.dcache.overall_miss_rate::total     0.011856                       # miss rate for overall accesses
system.cpu.dcache.demand_avg_miss_latency::.switch_cpus.data 59459.948387                       # average overall miss latency
system.cpu.dcache.demand_avg_miss_latency::.switch_cpus_1.data 43474.679123                       # average overall miss latency
system.cpu.dcache.demand_avg_miss_latency::total 14003.385632                       # average overall miss latency
system.cpu.dcache.overall_avg_miss_latency::.switch_cpus.data 59459.948387                       # average overall miss latency
system.cpu.dcache.overall_avg_miss_latency::.switch_cpus_1.data 43474.679123                       # average overall miss latency
system.cpu.dcache.overall_avg_miss_latency::total 14003.385632                       # average overall miss latency
system.cpu.dcache.blocked_cycles::no_mshrs       269513                       # number of cycles access was blocked
system.cpu.dcache.blocked_cycles::no_targets          491                       # number of cycles access was blocked
system.cpu.dcache.blocked::no_mshrs             12100                       # number of cycles access was blocked
system.cpu.dcache.blocked::no_targets               5                       # number of cycles access was blocked
system.cpu.dcache.avg_blocked_cycles::no_mshrs    22.273802                       # average number of cycles each access was blocked
system.cpu.dcache.avg_blocked_cycles::no_targets    98.200000                       # average number of cycles each access was blocked
system.cpu.dcache.writebacks::.writebacks      3768495                       # number of writebacks
system.cpu.dcache.writebacks::total           3768495                       # number of writebacks
system.cpu.dcache.demand_mshr_hits::.switch_cpus_1.data       932854                       # number of demand (read+write) MSHR hits
system.cpu.dcache.demand_mshr_hits::total       932854                       # number of demand (read+write) MSHR hits
system.cpu.dcache.overall_mshr_hits::.switch_cpus_1.data       932854                       # number of overall MSHR hits
system.cpu.dcache.overall_mshr_hits::total       932854                       # number of overall MSHR hits
system.cpu.dcache.demand_mshr_misses::.switch_cpus.data       312322                       # number of demand (read+write) MSHR misses
system.cpu.dcache.demand_mshr_misses::.switch_cpus_1.data      1493273                       # number of demand (read+write) MSHR misses
system.cpu.dcache.demand_mshr_misses::total      1805595                       # number of demand (read+write) MSHR misses
system.cpu.dcache.overall_mshr_misses::.switch_cpus.data       312322                       # number of overall MSHR misses
system.cpu.dcache.overall_mshr_misses::.switch_cpus_1.data      1493273                       # number of overall MSHR misses
system.cpu.dcache.overall_mshr_misses::total      1805595                       # number of overall MSHR misses
system.cpu.dcache.demand_mshr_miss_latency::.switch_cpus.data  18258328000                       # number of demand (read+write) MSHR miss cycles
system.cpu.dcache.demand_mshr_miss_latency::.switch_cpus_1.data  88707127336                       # number of demand (read+write) MSHR miss cycles
system.cpu.dcache.demand_mshr_miss_latency::total 106965455336                       # number of demand (read+write) MSHR miss cycles
system.cpu.dcache.overall_mshr_miss_latency::.switch_cpus.data  18258328000                       # number of overall MSHR miss cycles
system.cpu.dcache.overall_mshr_miss_latency::.switch_cpus_1.data  88707127336                       # number of overall MSHR miss cycles
system.cpu.dcache.overall_mshr_miss_latency::total 106965455336                       # number of overall MSHR miss cycles
system.cpu.dcache.demand_mshr_miss_rate::.switch_cpus.data     0.010723                       # mshr miss rate for demand accesses
system.cpu.dcache.demand_mshr_miss_rate::.switch_cpus_1.data     0.010741                       # mshr miss rate for demand accesses
system.cpu.dcache.demand_mshr_miss_rate::total     0.002417                       # mshr miss rate for demand accesses
system.cpu.dcache.overall_mshr_miss_rate::.switch_cpus.data     0.010723                       # mshr miss rate for overall accesses
system.cpu.dcache.overall_mshr_miss_rate::.switch_cpus_1.data     0.010741                       # mshr miss rate for overall accesses
system.cpu.dcache.overall_mshr_miss_rate::total     0.002417                       # mshr miss rate for overall accesses
system.cpu.dcache.demand_avg_mshr_miss_latency::.switch_cpus.data 58459.948387                       # average overall mshr miss latency
system.cpu.dcache.demand_avg_mshr_miss_latency::.switch_cpus_1.data 59404.494246                       # average overall mshr miss latency
system.cpu.dcache.demand_avg_mshr_miss_latency::total 59241.111842                       # average overall mshr miss latency
system.cpu.dcache.overall_avg_mshr_miss_latency::.switch_cpus.data 58459.948387                       # average overall mshr miss latency
system.cpu.dcache.overall_avg_mshr_miss_latency::.switch_cpus_1.data 59404.494246                       # average overall mshr miss latency
system.cpu.dcache.overall_avg_mshr_miss_latency::total 59241.111842                       # average overall mshr miss latency
system.cpu.dcache.replacements                7902527                       # number of replacements
system.cpu.dcache.ReadReq_hits::.cpu.data    423196343                       # number of ReadReq hits
system.cpu.dcache.ReadReq_hits::.switch_cpus.data     21304849                       # number of ReadReq hits
system.cpu.dcache.ReadReq_hits::.switch_cpus_1.data     99066790                       # number of ReadReq hits
system.cpu.dcache.ReadReq_hits::total       543567982                       # number of ReadReq hits
system.cpu.dcache.ReadReq_misses::.cpu.data      3224303                       # number of ReadReq misses
system.cpu.dcache.ReadReq_misses::.switch_cpus.data       165550                       # number of ReadReq misses
system.cpu.dcache.ReadReq_misses::.switch_cpus_1.data      1699754                       # number of ReadReq misses
system.cpu.dcache.ReadReq_misses::total       5089607                       # number of ReadReq misses
system.cpu.dcache.ReadReq_miss_latency::.switch_cpus.data   4488933500                       # number of ReadReq miss cycles
system.cpu.dcache.ReadReq_miss_latency::.switch_cpus_1.data  36687924000                       # number of ReadReq miss cycles
system.cpu.dcache.ReadReq_miss_latency::total  41176857500                       # number of ReadReq miss cycles
system.cpu.dcache.ReadReq_accesses::.cpu.data    426420646                       # number of ReadReq accesses(hits+misses)
system.cpu.dcache.ReadReq_accesses::.switch_cpus.data     21470399                       # number of ReadReq accesses(hits+misses)
system.cpu.dcache.ReadReq_accesses::.switch_cpus_1.data    100766544                       # number of ReadReq accesses(hits+misses)
system.cpu.dcache.ReadReq_accesses::total    548657589                       # number of ReadReq accesses(hits+misses)
system.cpu.dcache.ReadReq_miss_rate::.cpu.data     0.007561                       # miss rate for ReadReq accesses
system.cpu.dcache.ReadReq_miss_rate::.switch_cpus.data     0.007711                       # miss rate for ReadReq accesses
system.cpu.dcache.ReadReq_miss_rate::.switch_cpus_1.data     0.016868                       # miss rate for ReadReq accesses
system.cpu.dcache.ReadReq_miss_rate::total     0.009276                       # miss rate for ReadReq accesses
system.cpu.dcache.ReadReq_avg_miss_latency::.switch_cpus.data 27115.273331                       # average ReadReq miss latency
system.cpu.dcache.ReadReq_avg_miss_latency::.switch_cpus_1.data 21584.255133                       # average ReadReq miss latency
system.cpu.dcache.ReadReq_avg_miss_latency::total  8090.380554                       # average ReadReq miss latency
system.cpu.dcache.ReadReq_mshr_hits::.switch_cpus_1.data       931914                       # number of ReadReq MSHR hits
system.cpu.dcache.ReadReq_mshr_hits::total       931914                       # number of ReadReq MSHR hits
system.cpu.dcache.ReadReq_mshr_misses::.switch_cpus.data       165550                       # number of ReadReq MSHR misses
system.cpu.dcache.ReadReq_mshr_misses::.switch_cpus_1.data       767840                       # number of ReadReq MSHR misses
system.cpu.dcache.ReadReq_mshr_misses::total       933390                       # number of ReadReq MSHR misses
system.cpu.dcache.ReadReq_mshr_miss_latency::.switch_cpus.data   4323383500                       # number of ReadReq MSHR miss cycles
system.cpu.dcache.ReadReq_mshr_miss_latency::.switch_cpus_1.data  20646330500                       # number of ReadReq MSHR miss cycles
system.cpu.dcache.ReadReq_mshr_miss_latency::total  24969714000                       # number of ReadReq MSHR miss cycles
system.cpu.dcache.ReadReq_mshr_miss_rate::.switch_cpus.data     0.007711                       # mshr miss rate for ReadReq accesses
system.cpu.dcache.ReadReq_mshr_miss_rate::.switch_cpus_1.data     0.007620                       # mshr miss rate for ReadReq accesses
system.cpu.dcache.ReadReq_mshr_miss_rate::total     0.001701                       # mshr miss rate for ReadReq accesses
system.cpu.dcache.ReadReq_avg_mshr_miss_latency::.switch_cpus.data 26115.273331                       # average ReadReq mshr miss latency
system.cpu.dcache.ReadReq_avg_mshr_miss_latency::.switch_cpus_1.data 26888.844681                       # average ReadReq mshr miss latency
system.cpu.dcache.ReadReq_avg_mshr_miss_latency::total 26751.640793                       # average ReadReq mshr miss latency
system.cpu.dcache.WriteReq_hits::.cpu.data    149673583                       # number of WriteReq hits
system.cpu.dcache.WriteReq_hits::.switch_cpus.data      7507862                       # number of WriteReq hits
system.cpu.dcache.WriteReq_hits::.switch_cpus_1.data     37527169                       # number of WriteReq hits
system.cpu.dcache.WriteReq_hits::total      194708614                       # number of WriteReq hits
system.cpu.dcache.WriteReq_misses::.cpu.data      2895516                       # number of WriteReq misses
system.cpu.dcache.WriteReq_misses::.switch_cpus.data       146772                       # number of WriteReq misses
system.cpu.dcache.WriteReq_misses::.switch_cpus_1.data       726373                       # number of WriteReq misses
system.cpu.dcache.WriteReq_misses::total      3768661                       # number of WriteReq misses
system.cpu.dcache.WriteReq_miss_latency::.switch_cpus.data  14081716500                       # number of WriteReq miss cycles
system.cpu.dcache.WriteReq_miss_latency::.switch_cpus_1.data  68787168836                       # number of WriteReq miss cycles
system.cpu.dcache.WriteReq_miss_latency::total  82868885336                       # number of WriteReq miss cycles
system.cpu.dcache.WriteReq_accesses::.cpu.data    152569099                       # number of WriteReq accesses(hits+misses)
system.cpu.dcache.WriteReq_accesses::.switch_cpus.data      7654634                       # number of WriteReq accesses(hits+misses)
system.cpu.dcache.WriteReq_accesses::.switch_cpus_1.data     38253542                       # number of WriteReq accesses(hits+misses)
system.cpu.dcache.WriteReq_accesses::total    198477275                       # number of WriteReq accesses(hits+misses)
system.cpu.dcache.WriteReq_miss_rate::.cpu.data     0.018978                       # miss rate for WriteReq accesses
system.cpu.dcache.WriteReq_miss_rate::.switch_cpus.data     0.019174                       # miss rate for WriteReq accesses
system.cpu.dcache.WriteReq_miss_rate::.switch_cpus_1.data     0.018988                       # miss rate for WriteReq accesses
system.cpu.dcache.WriteReq_miss_rate::total     0.018988                       # miss rate for WriteReq accesses
system.cpu.dcache.WriteReq_avg_miss_latency::.switch_cpus.data 95942.799035                       # average WriteReq miss latency
system.cpu.dcache.WriteReq_avg_miss_latency::.switch_cpus_1.data 94699.512284                       # average WriteReq miss latency
system.cpu.dcache.WriteReq_avg_miss_latency::total 21988.946561                       # average WriteReq miss latency
system.cpu.dcache.WriteReq_mshr_hits::.switch_cpus_1.data          940                       # number of WriteReq MSHR hits
system.cpu.dcache.WriteReq_mshr_hits::total          940                       # number of WriteReq MSHR hits
system.cpu.dcache.WriteReq_mshr_misses::.switch_cpus.data       146772                       # number of WriteReq MSHR misses
system.cpu.dcache.WriteReq_mshr_misses::.switch_cpus_1.data       725433                       # number of WriteReq MSHR misses
system.cpu.dcache.WriteReq_mshr_misses::total       872205                       # number of WriteReq MSHR misses
system.cpu.dcache.WriteReq_mshr_miss_latency::.switch_cpus.data  13934944500                       # number of WriteReq MSHR miss cycles
system.cpu.dcache.WriteReq_mshr_miss_latency::.switch_cpus_1.data  68060796836                       # number of WriteReq MSHR miss cycles
system.cpu.dcache.WriteReq_mshr_miss_latency::total  81995741336                       # number of WriteReq MSHR miss cycles
system.cpu.dcache.WriteReq_mshr_miss_rate::.switch_cpus.data     0.019174                       # mshr miss rate for WriteReq accesses
system.cpu.dcache.WriteReq_mshr_miss_rate::.switch_cpus_1.data     0.018964                       # mshr miss rate for WriteReq accesses
system.cpu.dcache.WriteReq_mshr_miss_rate::total     0.004394                       # mshr miss rate for WriteReq accesses
system.cpu.dcache.WriteReq_avg_mshr_miss_latency::.switch_cpus.data 94942.799035                       # average WriteReq mshr miss latency
system.cpu.dcache.WriteReq_avg_mshr_miss_latency::.switch_cpus_1.data 93820.927413                       # average WriteReq mshr miss latency
system.cpu.dcache.WriteReq_avg_mshr_miss_latency::total 94009.712552                       # average WriteReq mshr miss latency
system.cpu.dcache.power_state.pwrStateResidencyTicks::UNDEFINED 1193620301000                       # Cumulative time (in ticks) in various power states
system.cpu.dcache.tags.tagsinuse           511.993879                       # Cycle average of tags in use
system.cpu.dcache.tags.total_refs           746203269                       # Total number of references to valid blocks.
system.cpu.dcache.tags.sampled_refs           7903039                       # Sample count of references to valid blocks.
system.cpu.dcache.tags.avg_refs             94.419788                       # Average number of references to valid blocks.
system.cpu.dcache.tags.warmup_cycle              1500                       # Cycle when the warmup percentage was hit.
system.cpu.dcache.tags.occ_blocks::.cpu.data   409.379724                       # Average occupied blocks per requestor
system.cpu.dcache.tags.occ_blocks::.switch_cpus.data    49.354594                       # Average occupied blocks per requestor
system.cpu.dcache.tags.occ_blocks::.switch_cpus_1.data    53.259560                       # Average occupied blocks per requestor
system.cpu.dcache.tags.occ_percent::.cpu.data     0.799570                       # Average percentage of cache occupancy
system.cpu.dcache.tags.occ_percent::.switch_cpus.data     0.096396                       # Average percentage of cache occupancy
system.cpu.dcache.tags.occ_percent::.switch_cpus_1.data     0.104023                       # Average percentage of cache occupancy
system.cpu.dcache.tags.occ_percent::total     0.999988                       # Average percentage of cache occupancy
system.cpu.dcache.tags.occ_task_id_blocks::1024          512                       # Occupied blocks per task id
system.cpu.dcache.tags.age_task_id_blocks_1024::0          113                       # Occupied blocks per task id
system.cpu.dcache.tags.age_task_id_blocks_1024::1          382                       # Occupied blocks per task id
system.cpu.dcache.tags.age_task_id_blocks_1024::2           17                       # Occupied blocks per task id
system.cpu.dcache.tags.occ_task_id_percent::1024            1                       # Percentage of cache occupancy per task id
system.cpu.dcache.tags.tag_accesses        2996442495                       # Number of tag accesses
system.cpu.dcache.tags.data_accesses       2996442495                       # Number of data accesses
system.cpu.dcache.tags.power_state.pwrStateResidencyTicks::UNDEFINED 1193620301000                       # Cumulative time (in ticks) in various power states
system.cpu.power_state.numTransitions               2                       # Number of power state transitions
system.cpu.power_state.pwrStateResidencyTicks::ON 952815094000                       # Cumulative time (in ticks) in various power states
system.cpu.power_state.pwrStateResidencyTicks::OFF 240805207000                       # Cumulative time (in ticks) in various power states

---------- End Simulation Statistics   ----------
