
---------- Begin Simulation Statistics ----------
final_tick                               1346235355000                       # Number of ticks from beginning of simulation (restored from checkpoints and never reset)
host_inst_rate                                 831733                       # Simulator instruction rate (inst/s)
host_mem_usage                                4615808                       # Number of bytes of host memory used
host_op_rate                                  1441130                       # Simulator op (including micro ops) rate (op/s)
host_seconds                                  1563.00                       # Real time elapsed on the host
host_tick_rate                               77952663                       # Simulator tick rate (ticks/s)
sim_freq                                 1000000000000                       # Frequency of simulated ticks
sim_insts                                  1300000002                       # Number of instructions simulated
sim_ops                                    2252488614                       # Number of ops (including micro ops) simulated
sim_seconds                                  0.121840                       # Number of seconds simulated
sim_ticks                                121840144000                       # Number of ticks simulated
system.cpu.committedInsts                           0                       # Number of instructions committed
system.cpu.committedOps                             0                       # Number of ops (including micro ops) committed
system.cpu.dtb.rdAccesses                           0                       # TLB accesses on read requests
system.cpu.dtb.rdMisses                             0                       # TLB misses on read requests
system.cpu.dtb.wrAccesses                           0                       # TLB accesses on write requests
system.cpu.dtb.wrMisses                             0                       # TLB misses on write requests
system.cpu.idle_fraction                            0                       # Percentage of idle cycles
system.cpu.itb.rdAccesses                           0                       # TLB accesses on read requests
system.cpu.itb.rdMisses                             0                       # TLB misses on read requests
system.cpu.itb.wrAccesses                           0                       # TLB accesses on write requests
system.cpu.itb.wrMisses                             0                       # TLB misses on write requests
system.cpu.not_idle_fraction                        1                       # Percentage of non-idle cycles
system.cpu.numCycles                                0                       # number of cpu cycles simulated
system.cpu.numWorkItemsCompleted                    0                       # number of work items this cpu completed
system.cpu.numWorkItemsStarted                      0                       # number of work items this cpu started
system.cpu.num_busy_cycles                          0                       # Number of busy cycles
system.cpu.num_conditional_control_insts            0                       # number of instructions that are conditional controls
system.cpu.num_fp_alu_accesses                      0                       # Number of float alu accesses
system.cpu.num_fp_insts                             0                       # number of float instructions
system.cpu.num_fp_register_reads                    0                       # number of times the floating registers were read
system.cpu.num_fp_register_writes                   0                       # number of times the floating registers were written
system.cpu.num_func_calls                           0                       # number of times a function call or return occured
system.cpu.num_idle_cycles                          0                       # Number of idle cycles
system.cpu.num_int_alu_accesses                     0                       # Number of integer alu accesses
system.cpu.num_int_insts                            0                       # number of integer instructions
system.cpu.num_int_register_reads                   0                       # number of times the integer registers were read
system.cpu.num_int_register_writes                  0                       # number of times the integer registers were written
system.cpu.num_load_insts                           0                       # Number of load instructions
system.cpu.num_mem_refs                             0                       # number of memory refs
system.cpu.num_store_insts                          0                       # Number of store instructions
system.cpu.num_vec_alu_accesses                     0                       # Number of vector alu accesses
system.cpu.num_vec_insts                            0                       # number of vector instructions
system.cpu.num_vec_register_reads                   0                       # number of times the vector registers were read
system.cpu.num_vec_register_writes                  0                       # number of times the vector registers were written
system.cpu.op_class::No_OpClass                     0                       # Class of executed instruction
system.cpu.op_class::IntAlu                         0                       # Class of executed instruction
system.cpu.op_class::IntMult                        0                       # Class of executed instruction
system.cpu.op_class::IntDiv                         0                       # Class of executed instruction
system.cpu.op_class::FloatAdd                       0                       # Class of executed instruction
system.cpu.op_class::FloatCmp                       0                       # Class of executed instruction
system.cpu.op_class::FloatCvt                       0                       # Class of executed instruction
system.cpu.op_class::FloatMult                      0                       # Class of executed instruction
system.cpu.op_class::FloatMultAcc                   0                       # Class of executed instruction
system.cpu.op_class::FloatDiv                       0                       # Class of executed instruction
system.cpu.op_class::FloatMisc                      0                       # Class of executed instruction
system.cpu.op_class::FloatSqrt                      0                       # Class of executed instruction
system.cpu.op_class::SimdAdd                        0                       # Class of executed instruction
system.cpu.op_class::SimdAddAcc                     0                       # Class of executed instruction
system.cpu.op_class::SimdAlu                        0                       # Class of executed instruction
system.cpu.op_class::SimdCmp                        0                       # Class of executed instruction
system.cpu.op_class::SimdCvt                        0                       # Class of executed instruction
system.cpu.op_class::SimdMisc                       0                       # Class of executed instruction
system.cpu.op_class::SimdMult                       0                       # Class of executed instruction
system.cpu.op_class::SimdMultAcc                    0                       # Class of executed instruction
system.cpu.op_class::SimdShift                      0                       # Class of executed instruction
system.cpu.op_class::SimdShiftAcc                   0                       # Class of executed instruction
system.cpu.op_class::SimdDiv                        0                       # Class of executed instruction
system.cpu.op_class::SimdSqrt                       0                       # Class of executed instruction
system.cpu.op_class::SimdFloatAdd                   0                       # Class of executed instruction
system.cpu.op_class::SimdFloatAlu                   0                       # Class of executed instruction
system.cpu.op_class::SimdFloatCmp                   0                       # Class of executed instruction
system.cpu.op_class::SimdFloatCvt                   0                       # Class of executed instruction
system.cpu.op_class::SimdFloatDiv                   0                       # Class of executed instruction
system.cpu.op_class::SimdFloatMisc                  0                       # Class of executed instruction
system.cpu.op_class::SimdFloatMult                  0                       # Class of executed instruction
system.cpu.op_class::SimdFloatMultAcc               0                       # Class of executed instruction
system.cpu.op_class::SimdFloatSqrt                  0                       # Class of executed instruction
system.cpu.op_class::SimdReduceAdd                  0                       # Class of executed instruction
system.cpu.op_class::SimdReduceAlu                  0                       # Class of executed instruction
system.cpu.op_class::SimdReduceCmp                  0                       # Class of executed instruction
system.cpu.op_class::SimdFloatReduceAdd             0                       # Class of executed instruction
system.cpu.op_class::SimdFloatReduceCmp             0                       # Class of executed instruction
system.cpu.op_class::SimdAes                        0                       # Class of executed instruction
system.cpu.op_class::SimdAesMix                     0                       # Class of executed instruction
system.cpu.op_class::SimdSha1Hash                   0                       # Class of executed instruction
system.cpu.op_class::SimdSha1Hash2                  0                       # Class of executed instruction
system.cpu.op_class::SimdSha256Hash                 0                       # Class of executed instruction
system.cpu.op_class::SimdSha256Hash2                0                       # Class of executed instruction
system.cpu.op_class::SimdShaSigma2                  0                       # Class of executed instruction
system.cpu.op_class::SimdShaSigma3                  0                       # Class of executed instruction
system.cpu.op_class::SimdPredAlu                    0                       # Class of executed instruction
system.cpu.op_class::MemRead                        0                       # Class of executed instruction
system.cpu.op_class::MemWrite                       0                       # Class of executed instruction
system.cpu.op_class::FloatMemRead                   0                       # Class of executed instruction
system.cpu.op_class::FloatMemWrite                  0                       # Class of executed instruction
system.cpu.op_class::IprAccess                      0                       # Class of executed instruction
system.cpu.op_class::InstPrefetch                   0                       # Class of executed instruction
system.cpu.op_class::total                          0                       # Class of executed instruction
system.cpu.workload.numSyscalls                     0                       # Number of system calls
system.membus.snoop_filter.hit_multi_requests            0                       # Number of requests hitting in the snoop filter with multiple (>1) holders of the requested data.
system.membus.snoop_filter.hit_multi_snoops            0                       # Number of snoops hitting in the snoop filter with multiple (>1) holders of the requested data.
system.membus.snoop_filter.hit_single_requests       933658                       # Number of requests hitting in the snoop filter with a single holder of the requested data.
system.membus.snoop_filter.hit_single_snoops            0                       # Number of snoops hitting in the snoop filter with a single holder of the requested data.
system.membus.snoop_filter.tot_requests       1865978                       # Total number of requests made to the snoop filter.
system.membus.snoop_filter.tot_snoops               0                       # Total number of snoops made to the snoop filter.
system.switch_cpus.committedInsts                   0                       # Number of instructions committed
system.switch_cpus.committedOps                     0                       # Number of ops (including micro ops) committed
system.switch_cpus.dtb.rdAccesses                   0                       # TLB accesses on read requests
system.switch_cpus.dtb.rdMisses                     0                       # TLB misses on read requests
system.switch_cpus.dtb.wrAccesses                   0                       # TLB accesses on write requests
system.switch_cpus.dtb.wrMisses                     0                       # TLB misses on write requests
system.switch_cpus.idle_fraction                    0                       # Percentage of idle cycles
system.switch_cpus.itb.rdAccesses                   0                       # TLB accesses on read requests
system.switch_cpus.itb.rdMisses                     0                       # TLB misses on read requests
system.switch_cpus.itb.wrAccesses                   0                       # TLB accesses on write requests
system.switch_cpus.itb.wrMisses                     0                       # TLB misses on write requests
system.switch_cpus.not_idle_fraction                1                       # Percentage of non-idle cycles
system.switch_cpus.numCycles                        0                       # number of cpu cycles simulated
system.switch_cpus.numWorkItemsCompleted            0                       # number of work items this cpu completed
system.switch_cpus.numWorkItemsStarted              0                       # number of work items this cpu started
system.switch_cpus.num_busy_cycles                  0                       # Number of busy cycles
system.switch_cpus.num_conditional_control_insts            0                       # number of instructions that are conditional controls
system.switch_cpus.num_fp_alu_accesses              0                       # Number of float alu accesses
system.switch_cpus.num_fp_insts                     0                       # number of float instructions
system.switch_cpus.num_fp_register_reads            0                       # number of times the floating registers were read
system.switch_cpus.num_fp_register_writes            0                       # number of times the floating registers were written
system.switch_cpus.num_func_calls                   0                       # number of times a function call or return occured
system.switch_cpus.num_idle_cycles                  0                       # Number of idle cycles
system.switch_cpus.num_int_alu_accesses             0                       # Number of integer alu accesses
system.switch_cpus.num_int_insts                    0                       # number of integer instructions
system.switch_cpus.num_int_register_reads            0                       # number of times the integer registers were read
system.switch_cpus.num_int_register_writes            0                       # number of times the integer registers were written
system.switch_cpus.num_load_insts                   0                       # Number of load instructions
system.switch_cpus.num_mem_refs                     0                       # number of memory refs
system.switch_cpus.num_store_insts                  0                       # Number of store instructions
system.switch_cpus.num_vec_alu_accesses             0                       # Number of vector alu accesses
system.switch_cpus.num_vec_insts                    0                       # number of vector instructions
system.switch_cpus.num_vec_register_reads            0                       # number of times the vector registers were read
system.switch_cpus.num_vec_register_writes            0                       # number of times the vector registers were written
system.switch_cpus.op_class::No_OpClass             0                       # Class of executed instruction
system.switch_cpus.op_class::IntAlu                 0                       # Class of executed instruction
system.switch_cpus.op_class::IntMult                0                       # Class of executed instruction
system.switch_cpus.op_class::IntDiv                 0                       # Class of executed instruction
system.switch_cpus.op_class::FloatAdd               0                       # Class of executed instruction
system.switch_cpus.op_class::FloatCmp               0                       # Class of executed instruction
system.switch_cpus.op_class::FloatCvt               0                       # Class of executed instruction
system.switch_cpus.op_class::FloatMult              0                       # Class of executed instruction
system.switch_cpus.op_class::FloatMultAcc            0                       # Class of executed instruction
system.switch_cpus.op_class::FloatDiv               0                       # Class of executed instruction
system.switch_cpus.op_class::FloatMisc              0                       # Class of executed instruction
system.switch_cpus.op_class::FloatSqrt              0                       # Class of executed instruction
system.switch_cpus.op_class::SimdAdd                0                       # Class of executed instruction
system.switch_cpus.op_class::SimdAddAcc             0                       # Class of executed instruction
system.switch_cpus.op_class::SimdAlu                0                       # Class of executed instruction
system.switch_cpus.op_class::SimdCmp                0                       # Class of executed instruction
system.switch_cpus.op_class::SimdCvt                0                       # Class of executed instruction
system.switch_cpus.op_class::SimdMisc               0                       # Class of executed instruction
system.switch_cpus.op_class::SimdMult               0                       # Class of executed instruction
system.switch_cpus.op_class::SimdMultAcc            0                       # Class of executed instruction
system.switch_cpus.op_class::SimdShift              0                       # Class of executed instruction
system.switch_cpus.op_class::SimdShiftAcc            0                       # Class of executed instruction
system.switch_cpus.op_class::SimdDiv                0                       # Class of executed instruction
system.switch_cpus.op_class::SimdSqrt               0                       # Class of executed instruction
system.switch_cpus.op_class::SimdFloatAdd            0                       # Class of executed instruction
system.switch_cpus.op_class::SimdFloatAlu            0                       # Class of executed instruction
system.switch_cpus.op_class::SimdFloatCmp            0                       # Class of executed instruction
system.switch_cpus.op_class::SimdFloatCvt            0                       # Class of executed instruction
system.switch_cpus.op_class::SimdFloatDiv            0                       # Class of executed instruction
system.switch_cpus.op_class::SimdFloatMisc            0                       # Class of executed instruction
system.switch_cpus.op_class::SimdFloatMult            0                       # Class of executed instruction
system.switch_cpus.op_class::SimdFloatMultAcc            0                       # Class of executed instruction
system.switch_cpus.op_class::SimdFloatSqrt            0                       # Class of executed instruction
system.switch_cpus.op_class::SimdReduceAdd            0                       # Class of executed instruction
system.switch_cpus.op_class::SimdReduceAlu            0                       # Class of executed instruction
system.switch_cpus.op_class::SimdReduceCmp            0                       # Class of executed instruction
system.switch_cpus.op_class::SimdFloatReduceAdd            0                       # Class of executed instruction
system.switch_cpus.op_class::SimdFloatReduceCmp            0                       # Class of executed instruction
system.switch_cpus.op_class::SimdAes                0                       # Class of executed instruction
system.switch_cpus.op_class::SimdAesMix             0                       # Class of executed instruction
system.switch_cpus.op_class::SimdSha1Hash            0                       # Class of executed instruction
system.switch_cpus.op_class::SimdSha1Hash2            0                       # Class of executed instruction
system.switch_cpus.op_class::SimdSha256Hash            0                       # Class of executed instruction
system.switch_cpus.op_class::SimdSha256Hash2            0                       # Class of executed instruction
system.switch_cpus.op_class::SimdShaSigma2            0                       # Class of executed instruction
system.switch_cpus.op_class::SimdShaSigma3            0                       # Class of executed instruction
system.switch_cpus.op_class::SimdPredAlu            0                       # Class of executed instruction
system.switch_cpus.op_class::MemRead                0                       # Class of executed instruction
system.switch_cpus.op_class::MemWrite               0                       # Class of executed instruction
system.switch_cpus.op_class::FloatMemRead            0                       # Class of executed instruction
system.switch_cpus.op_class::FloatMemWrite            0                       # Class of executed instruction
system.switch_cpus.op_class::IprAccess              0                       # Class of executed instruction
system.switch_cpus.op_class::InstPrefetch            0                       # Class of executed instruction
system.switch_cpus.op_class::total                  0                       # Class of executed instruction
system.switch_cpus_1.branchPred.BTBCorrect            0                       # Number of correct BTB predictions (this stat may not work properly.
system.switch_cpus_1.branchPred.BTBHitPct          nan                       # BTB Hit Percentage
system.switch_cpus_1.branchPred.BTBHits             0                       # Number of BTB hits
system.switch_cpus_1.branchPred.BTBLookups            0                       # Number of BTB lookups
system.switch_cpus_1.branchPred.RASInCorrect            0                       # Number of incorrect RAS predictions.
system.switch_cpus_1.branchPred.condIncorrect         2752                       # Number of conditional branches incorrect
system.switch_cpus_1.branchPred.condPredicted       322076                       # Number of conditional branches predicted
system.switch_cpus_1.branchPred.indirectHits       318288                       # Number of indirect target hits.
system.switch_cpus_1.branchPred.indirectLookups       318618                       # Number of indirect predictor lookups.
system.switch_cpus_1.branchPred.indirectMisses          330                       # Number of indirect misses.
system.switch_cpus_1.branchPred.lookups        322248                       # Number of BP lookups
system.switch_cpus_1.branchPred.usedRAS             0                       # Number of times the RAS was used to get a target.
system.switch_cpus_1.branchPredindirectMispredicted           64                       # Number of mispredicted indirect branches.
system.switch_cpus_1.cc_regfile_reads         1590259                       # number of cc regfile reads
system.switch_cpus_1.cc_regfile_writes        9615553                       # number of cc regfile writes
system.switch_cpus_1.commit.amos                    0                       # Number of atomic instructions committed
system.switch_cpus_1.commit.branchMispredicts         2752                       # The number of times a branch was mispredicted
system.switch_cpus_1.commit.branches           316130                       # Number of branches committed
system.switch_cpus_1.commit.bw_lim_events     28540519                       # number cycles where commit BW limit reached
system.switch_cpus_1.commit.commitSquashedInsts       359409                       # The number of squashed insts skipped by commit
system.switch_cpus_1.commit.committedInsts    250000000                       # Number of instructions committed
system.switch_cpus_1.commit.committedOps    396157622                       # Number of ops (including micro ops) committed
system.switch_cpus_1.commit.committed_per_cycle::samples    243630943                       # Number of insts commited each cycle
system.switch_cpus_1.commit.committed_per_cycle::mean     1.626056                       # Number of insts commited each cycle
system.switch_cpus_1.commit.committed_per_cycle::stdev     2.820690                       # Number of insts commited each cycle
system.switch_cpus_1.commit.committed_per_cycle::underflows            0      0.00%      0.00% # Number of insts commited each cycle
system.switch_cpus_1.commit.committed_per_cycle::0    164095471     67.35%     67.35% # Number of insts commited each cycle
system.switch_cpus_1.commit.committed_per_cycle::1     14079301      5.78%     73.13% # Number of insts commited each cycle
system.switch_cpus_1.commit.committed_per_cycle::2      7819138      3.21%     76.34% # Number of insts commited each cycle
system.switch_cpus_1.commit.committed_per_cycle::3      6996022      2.87%     79.21% # Number of insts commited each cycle
system.switch_cpus_1.commit.committed_per_cycle::4      6800240      2.79%     82.01% # Number of insts commited each cycle
system.switch_cpus_1.commit.committed_per_cycle::5      6208721      2.55%     84.55% # Number of insts commited each cycle
system.switch_cpus_1.commit.committed_per_cycle::6      4757455      1.95%     86.51% # Number of insts commited each cycle
system.switch_cpus_1.commit.committed_per_cycle::7      4334076      1.78%     88.29% # Number of insts commited each cycle
system.switch_cpus_1.commit.committed_per_cycle::8     28540519     11.71%    100.00% # Number of insts commited each cycle
system.switch_cpus_1.commit.committed_per_cycle::overflows            0      0.00%    100.00% # Number of insts commited each cycle
system.switch_cpus_1.commit.committed_per_cycle::min_value            0                       # Number of insts commited each cycle
system.switch_cpus_1.commit.committed_per_cycle::max_value            8                       # Number of insts commited each cycle
system.switch_cpus_1.commit.committed_per_cycle::total    243630943                       # Number of insts commited each cycle
system.switch_cpus_1.commit.fp_insts        362997072                       # Number of committed floating point instructions.
system.switch_cpus_1.commit.function_calls            0                       # Number of function calls committed.
system.switch_cpus_1.commit.int_insts       152683001                       # Number of committed integer instructions.
system.switch_cpus_1.commit.loads           107764674                       # Number of loads committed
system.switch_cpus_1.commit.membars                 0                       # Number of memory barriers committed
system.switch_cpus_1.commit.op_class_0::No_OpClass         1342      0.00%      0.00% # Class of committed instruction
system.switch_cpus_1.commit.op_class_0::IntAlu     85398673     21.56%     21.56% # Class of committed instruction
system.switch_cpus_1.commit.op_class_0::IntMult           77      0.00%     21.56% # Class of committed instruction
system.switch_cpus_1.commit.op_class_0::IntDiv            0      0.00%     21.56% # Class of committed instruction
system.switch_cpus_1.commit.op_class_0::FloatAdd     44959348     11.35%     32.91% # Class of committed instruction
system.switch_cpus_1.commit.op_class_0::FloatCmp            0      0.00%     32.91% # Class of committed instruction
system.switch_cpus_1.commit.op_class_0::FloatCvt            0      0.00%     32.91% # Class of committed instruction
system.switch_cpus_1.commit.op_class_0::FloatMult            0      0.00%     32.91% # Class of committed instruction
system.switch_cpus_1.commit.op_class_0::FloatMultAcc            0      0.00%     32.91% # Class of committed instruction
system.switch_cpus_1.commit.op_class_0::FloatDiv            0      0.00%     32.91% # Class of committed instruction
system.switch_cpus_1.commit.op_class_0::FloatMisc            0      0.00%     32.91% # Class of committed instruction
system.switch_cpus_1.commit.op_class_0::FloatSqrt            0      0.00%     32.91% # Class of committed instruction
system.switch_cpus_1.commit.op_class_0::SimdAdd            0      0.00%     32.91% # Class of committed instruction
system.switch_cpus_1.commit.op_class_0::SimdAddAcc            0      0.00%     32.91% # Class of committed instruction
system.switch_cpus_1.commit.op_class_0::SimdAlu      4853134      1.23%     34.13% # Class of committed instruction
system.switch_cpus_1.commit.op_class_0::SimdCmp            0      0.00%     34.13% # Class of committed instruction
system.switch_cpus_1.commit.op_class_0::SimdCvt            0      0.00%     34.13% # Class of committed instruction
system.switch_cpus_1.commit.op_class_0::SimdMisc            0      0.00%     34.13% # Class of committed instruction
system.switch_cpus_1.commit.op_class_0::SimdMult            0      0.00%     34.13% # Class of committed instruction
system.switch_cpus_1.commit.op_class_0::SimdMultAcc            0      0.00%     34.13% # Class of committed instruction
system.switch_cpus_1.commit.op_class_0::SimdShift            0      0.00%     34.13% # Class of committed instruction
system.switch_cpus_1.commit.op_class_0::SimdShiftAcc            0      0.00%     34.13% # Class of committed instruction
system.switch_cpus_1.commit.op_class_0::SimdDiv            0      0.00%     34.13% # Class of committed instruction
system.switch_cpus_1.commit.op_class_0::SimdSqrt            0      0.00%     34.13% # Class of committed instruction
system.switch_cpus_1.commit.op_class_0::SimdFloatAdd     71723816     18.10%     52.24% # Class of committed instruction
system.switch_cpus_1.commit.op_class_0::SimdFloatAlu            0      0.00%     52.24% # Class of committed instruction
system.switch_cpus_1.commit.op_class_0::SimdFloatCmp            0      0.00%     52.24% # Class of committed instruction
system.switch_cpus_1.commit.op_class_0::SimdFloatCvt            0      0.00%     52.24% # Class of committed instruction
system.switch_cpus_1.commit.op_class_0::SimdFloatDiv       151211      0.04%     52.27% # Class of committed instruction
system.switch_cpus_1.commit.op_class_0::SimdFloatMisc            0      0.00%     52.27% # Class of committed instruction
system.switch_cpus_1.commit.op_class_0::SimdFloatMult     52823112     13.33%     65.61% # Class of committed instruction
system.switch_cpus_1.commit.op_class_0::SimdFloatMultAcc            0      0.00%     65.61% # Class of committed instruction
system.switch_cpus_1.commit.op_class_0::SimdFloatSqrt            0      0.00%     65.61% # Class of committed instruction
system.switch_cpus_1.commit.op_class_0::SimdReduceAdd            0      0.00%     65.61% # Class of committed instruction
system.switch_cpus_1.commit.op_class_0::SimdReduceAlu            0      0.00%     65.61% # Class of committed instruction
system.switch_cpus_1.commit.op_class_0::SimdReduceCmp            0      0.00%     65.61% # Class of committed instruction
system.switch_cpus_1.commit.op_class_0::SimdFloatReduceAdd            0      0.00%     65.61% # Class of committed instruction
system.switch_cpus_1.commit.op_class_0::SimdFloatReduceCmp            0      0.00%     65.61% # Class of committed instruction
system.switch_cpus_1.commit.op_class_0::SimdAes            0      0.00%     65.61% # Class of committed instruction
system.switch_cpus_1.commit.op_class_0::SimdAesMix            0      0.00%     65.61% # Class of committed instruction
system.switch_cpus_1.commit.op_class_0::SimdSha1Hash            0      0.00%     65.61% # Class of committed instruction
system.switch_cpus_1.commit.op_class_0::SimdSha1Hash2            0      0.00%     65.61% # Class of committed instruction
system.switch_cpus_1.commit.op_class_0::SimdSha256Hash            0      0.00%     65.61% # Class of committed instruction
system.switch_cpus_1.commit.op_class_0::SimdSha256Hash2            0      0.00%     65.61% # Class of committed instruction
system.switch_cpus_1.commit.op_class_0::SimdShaSigma2            0      0.00%     65.61% # Class of committed instruction
system.switch_cpus_1.commit.op_class_0::SimdShaSigma3            0      0.00%     65.61% # Class of committed instruction
system.switch_cpus_1.commit.op_class_0::SimdPredAlu            0      0.00%     65.61% # Class of committed instruction
system.switch_cpus_1.commit.op_class_0::MemRead     14045376      3.55%     69.15% # Class of committed instruction
system.switch_cpus_1.commit.op_class_0::MemWrite      2677740      0.68%     69.83% # Class of committed instruction
system.switch_cpus_1.commit.op_class_0::FloatMemRead     93719298     23.66%     93.49% # Class of committed instruction
system.switch_cpus_1.commit.op_class_0::FloatMemWrite     25804495      6.51%    100.00% # Class of committed instruction
system.switch_cpus_1.commit.op_class_0::IprAccess            0      0.00%    100.00% # Class of committed instruction
system.switch_cpus_1.commit.op_class_0::InstPrefetch            0      0.00%    100.00% # Class of committed instruction
system.switch_cpus_1.commit.op_class_0::total    396157622                       # Class of committed instruction
system.switch_cpus_1.commit.refs            136246909                       # Number of memory references committed
system.switch_cpus_1.commit.swp_count               0                       # Number of s/w prefetches committed
system.switch_cpus_1.commit.vec_insts               0                       # Number of committed Vector instructions.
system.switch_cpus_1.committedInsts         250000000                       # Number of Instructions Simulated
system.switch_cpus_1.committedOps           396157622                       # Number of Ops (including micro ops) Simulated
system.switch_cpus_1.cpi                     0.974721                       # CPI: Cycles Per Instruction
system.switch_cpus_1.cpi_total               0.974721                       # CPI: Total CPI of All Threads
system.switch_cpus_1.decode.BlockedCycles    165149619                       # Number of cycles decode is blocked
system.switch_cpus_1.decode.DecodedInsts    396594648                       # Number of instructions handled by decode
system.switch_cpus_1.decode.IdleCycles       21128909                       # Number of cycles decode is idle
system.switch_cpus_1.decode.RunCycles        50426695                       # Number of cycles decode is running
system.switch_cpus_1.decode.SquashCycles         7934                       # Number of cycles decode is squashing
system.switch_cpus_1.decode.UnblockCycles      6967065                       # Number of cycles decode is unblocking
system.switch_cpus_1.dtb.rdAccesses         107879197                       # TLB accesses on read requests
system.switch_cpus_1.dtb.rdMisses               14870                       # TLB misses on read requests
system.switch_cpus_1.dtb.wrAccesses          28520906                       # TLB accesses on write requests
system.switch_cpus_1.dtb.wrMisses                9698                       # TLB misses on write requests
system.switch_cpus_1.fetch.Branches            322248                       # Number of branches that fetch encountered
system.switch_cpus_1.fetch.CacheLines        25389445                       # Number of cache lines fetched
system.switch_cpus_1.fetch.Cycles           218279688                       # Number of cycles fetch has run and was not squashing or blocked
system.switch_cpus_1.fetch.IcacheSquashes         1569                       # Number of outstanding Icache misses that were squashed
system.switch_cpus_1.fetch.Insts            250428622                       # Number of instructions fetch has processed
system.switch_cpus_1.fetch.SquashCycles         15868                       # Number of cycles fetch has spent squashing
system.switch_cpus_1.fetch.branchRate        0.001322                       # Number of branch fetches per cycle
system.switch_cpus_1.fetch.icacheStallCycles     25392666                       # Number of cycles fetch is stalled on an Icache miss
system.switch_cpus_1.fetch.predictedBranches       318288                       # Number of branches that fetch has predicted taken
system.switch_cpus_1.fetch.rate              1.027693                       # Number of inst fetches per cycle
system.switch_cpus_1.fetch.rateDist::samples    243680288                       # Number of instructions fetched each cycle (Total)
system.switch_cpus_1.fetch.rateDist::mean     1.628354                       # Number of instructions fetched each cycle (Total)
system.switch_cpus_1.fetch.rateDist::stdev     3.047991                       # Number of instructions fetched each cycle (Total)
system.switch_cpus_1.fetch.rateDist::underflows            0      0.00%      0.00% # Number of instructions fetched each cycle (Total)
system.switch_cpus_1.fetch.rateDist::0      181924424     74.66%     74.66% # Number of instructions fetched each cycle (Total)
system.switch_cpus_1.fetch.rateDist::1        5127958      2.10%     76.76% # Number of instructions fetched each cycle (Total)
system.switch_cpus_1.fetch.rateDist::2        3647215      1.50%     78.26% # Number of instructions fetched each cycle (Total)
system.switch_cpus_1.fetch.rateDist::3        1942055      0.80%     79.06% # Number of instructions fetched each cycle (Total)
system.switch_cpus_1.fetch.rateDist::4        2068686      0.85%     79.90% # Number of instructions fetched each cycle (Total)
system.switch_cpus_1.fetch.rateDist::5        3500218      1.44%     81.34% # Number of instructions fetched each cycle (Total)
system.switch_cpus_1.fetch.rateDist::6        3440911      1.41%     82.75% # Number of instructions fetched each cycle (Total)
system.switch_cpus_1.fetch.rateDist::7        4102624      1.68%     84.44% # Number of instructions fetched each cycle (Total)
system.switch_cpus_1.fetch.rateDist::8       37926197     15.56%    100.00% # Number of instructions fetched each cycle (Total)
system.switch_cpus_1.fetch.rateDist::overflows            0      0.00%    100.00% # Number of instructions fetched each cycle (Total)
system.switch_cpus_1.fetch.rateDist::min_value            0                       # Number of instructions fetched each cycle (Total)
system.switch_cpus_1.fetch.rateDist::max_value            8                       # Number of instructions fetched each cycle (Total)
system.switch_cpus_1.fetch.rateDist::total    243680288                       # Number of instructions fetched each cycle (Total)
system.switch_cpus_1.fp_regfile_reads       547738815                       # number of floating regfile reads
system.switch_cpus_1.fp_regfile_writes      337351717                       # number of floating regfile writes
system.switch_cpus_1.iew.branchMispredicts         2779                       # Number of branch mispredicts detected at execute
system.switch_cpus_1.iew.exec_branches         318579                       # Number of branches executed
system.switch_cpus_1.iew.exec_nop                   0                       # number of nop insts executed
system.switch_cpus_1.iew.exec_rate           1.658672                       # Inst execution rate
system.switch_cpus_1.iew.exec_refs          144145812                       # number of memory reference insts executed
system.switch_cpus_1.iew.exec_stores         28520906                       # Number of stores executed
system.switch_cpus_1.iew.exec_swp                   0                       # number of swp insts executed
system.switch_cpus_1.iew.iewBlockCycles      19003897                       # Number of cycles IEW is blocking
system.switch_cpus_1.iew.iewDispLoadInsts    107891237                       # Number of dispatched load instructions
system.switch_cpus_1.iew.iewDispNonSpecInsts            0                       # Number of dispatched non-speculative instructions
system.switch_cpus_1.iew.iewDispSquashedInsts          263                       # Number of squashed instructions skipped by dispatch
system.switch_cpus_1.iew.iewDispStoreInsts     28537729                       # Number of dispatched store instructions
system.switch_cpus_1.iew.iewDispatchedInsts    396514126                       # Number of instructions dispatched to IQ
system.switch_cpus_1.iew.iewExecLoadInsts    115624906                       # Number of load instructions executed
system.switch_cpus_1.iew.iewExecSquashedInsts        16074                       # Number of squashed instructions skipped in execute
system.switch_cpus_1.iew.iewExecutedInsts    404185580                       # Number of executed instructions
system.switch_cpus_1.iew.iewIQFullEvents       580759                       # Number of times the IQ has become full, causing a stall
system.switch_cpus_1.iew.iewIdleCycles              0                       # Number of cycles IEW is idle
system.switch_cpus_1.iew.iewLSQFullEvents     34549578                       # Number of times the LSQ has become full, causing a stall
system.switch_cpus_1.iew.iewSquashCycles         7934                       # Number of cycles IEW is squashing
system.switch_cpus_1.iew.iewUnblockCycles     35541200                       # Number of cycles IEW is unblocking
system.switch_cpus_1.iew.lsq.thread0.blockedLoads            0                       # Number of blocked loads due to partial load-store forwarding
system.switch_cpus_1.iew.lsq.thread0.cacheBlocked      1208706                       # Number of times an access to memory failed due to the cache being blocked
system.switch_cpus_1.iew.lsq.thread0.forwLoads      6805811                       # Number of loads that had data forwarded from stores
system.switch_cpus_1.iew.lsq.thread0.ignoredResponses           22                       # Number of memory responses ignored because the instruction is squashed
system.switch_cpus_1.iew.lsq.thread0.invAddrLoads            0                       # Number of loads ignored due to an invalid address
system.switch_cpus_1.iew.lsq.thread0.invAddrSwpfs            0                       # Number of software prefetches ignored due to an invalid address
system.switch_cpus_1.iew.lsq.thread0.memOrderViolation         3574                       # Number of memory ordering violations
system.switch_cpus_1.iew.lsq.thread0.rescheduledLoads            0                       # Number of loads that were rescheduled
system.switch_cpus_1.iew.lsq.thread0.squashedLoads       126552                       # Number of loads squashed
system.switch_cpus_1.iew.lsq.thread0.squashedStores        55494                       # Number of stores squashed
system.switch_cpus_1.iew.memOrderViolationEvents         3574                       # Number of memory order violations
system.switch_cpus_1.iew.predictedNotTakenIncorrect          155                       # Number of branches that were predicted not taken incorrectly
system.switch_cpus_1.iew.predictedTakenIncorrect         2624                       # Number of branches that were predicted taken incorrectly
system.switch_cpus_1.iew.wb_consumers       442513318                       # num instructions consuming a value
system.switch_cpus_1.iew.wb_count           396415777                       # cumulative count of insts written-back
system.switch_cpus_1.iew.wb_fanout           0.628605                       # average fanout of values written-back
system.switch_cpus_1.iew.wb_producers       278166277                       # num instructions producing a value
system.switch_cpus_1.iew.wb_rate             1.626786                       # insts written-back per cycle
system.switch_cpus_1.iew.wb_sent            396425445                       # cumulative count of insts sent to commit
system.switch_cpus_1.int_regfile_reads      301480603                       # number of integer regfile reads
system.switch_cpus_1.int_regfile_writes      30232988                       # number of integer regfile writes
system.switch_cpus_1.ipc                     1.025934                       # IPC: Instructions Per Cycle
system.switch_cpus_1.ipc_total               1.025934                       # IPC: Total IPC of All Threads
system.switch_cpus_1.iq.FU_type_0::No_OpClass         1354      0.00%      0.00% # Type of FU issued
system.switch_cpus_1.iq.FU_type_0::IntAlu     85443832     21.14%     21.14% # Type of FU issued
system.switch_cpus_1.iq.FU_type_0::IntMult          107      0.00%     21.14% # Type of FU issued
system.switch_cpus_1.iq.FU_type_0::IntDiv            0      0.00%     21.14% # Type of FU issued
system.switch_cpus_1.iq.FU_type_0::FloatAdd     44999662     11.13%     32.27% # Type of FU issued
system.switch_cpus_1.iq.FU_type_0::FloatCmp            0      0.00%     32.27% # Type of FU issued
system.switch_cpus_1.iq.FU_type_0::FloatCvt            0      0.00%     32.27% # Type of FU issued
system.switch_cpus_1.iq.FU_type_0::FloatMult            0      0.00%     32.27% # Type of FU issued
system.switch_cpus_1.iq.FU_type_0::FloatMultAcc            0      0.00%     32.27% # Type of FU issued
system.switch_cpus_1.iq.FU_type_0::FloatDiv            0      0.00%     32.27% # Type of FU issued
system.switch_cpus_1.iq.FU_type_0::FloatMisc            0      0.00%     32.27% # Type of FU issued
system.switch_cpus_1.iq.FU_type_0::FloatSqrt            0      0.00%     32.27% # Type of FU issued
system.switch_cpus_1.iq.FU_type_0::SimdAdd            0      0.00%     32.27% # Type of FU issued
system.switch_cpus_1.iq.FU_type_0::SimdAddAcc            0      0.00%     32.27% # Type of FU issued
system.switch_cpus_1.iq.FU_type_0::SimdAlu      4858714      1.20%     33.47% # Type of FU issued
system.switch_cpus_1.iq.FU_type_0::SimdCmp            0      0.00%     33.47% # Type of FU issued
system.switch_cpus_1.iq.FU_type_0::SimdCvt            0      0.00%     33.47% # Type of FU issued
system.switch_cpus_1.iq.FU_type_0::SimdMisc            0      0.00%     33.47% # Type of FU issued
system.switch_cpus_1.iq.FU_type_0::SimdMult            0      0.00%     33.47% # Type of FU issued
system.switch_cpus_1.iq.FU_type_0::SimdMultAcc            0      0.00%     33.47% # Type of FU issued
system.switch_cpus_1.iq.FU_type_0::SimdShift            0      0.00%     33.47% # Type of FU issued
system.switch_cpus_1.iq.FU_type_0::SimdShiftAcc            0      0.00%     33.47% # Type of FU issued
system.switch_cpus_1.iq.FU_type_0::SimdDiv            0      0.00%     33.47% # Type of FU issued
system.switch_cpus_1.iq.FU_type_0::SimdSqrt            0      0.00%     33.47% # Type of FU issued
system.switch_cpus_1.iq.FU_type_0::SimdFloatAdd     71746233     17.75%     51.22% # Type of FU issued
system.switch_cpus_1.iq.FU_type_0::SimdFloatAlu            0      0.00%     51.22% # Type of FU issued
system.switch_cpus_1.iq.FU_type_0::SimdFloatCmp            0      0.00%     51.22% # Type of FU issued
system.switch_cpus_1.iq.FU_type_0::SimdFloatCvt            0      0.00%     51.22% # Type of FU issued
system.switch_cpus_1.iq.FU_type_0::SimdFloatDiv       151211      0.04%     51.26% # Type of FU issued
system.switch_cpus_1.iq.FU_type_0::SimdFloatMisc            0      0.00%     51.26% # Type of FU issued
system.switch_cpus_1.iq.FU_type_0::SimdFloatMult     52844117     13.07%     64.34% # Type of FU issued
system.switch_cpus_1.iq.FU_type_0::SimdFloatMultAcc            0      0.00%     64.34% # Type of FU issued
system.switch_cpus_1.iq.FU_type_0::SimdFloatSqrt            0      0.00%     64.34% # Type of FU issued
system.switch_cpus_1.iq.FU_type_0::SimdReduceAdd            0      0.00%     64.34% # Type of FU issued
system.switch_cpus_1.iq.FU_type_0::SimdReduceAlu            0      0.00%     64.34% # Type of FU issued
system.switch_cpus_1.iq.FU_type_0::SimdReduceCmp            0      0.00%     64.34% # Type of FU issued
system.switch_cpus_1.iq.FU_type_0::SimdFloatReduceAdd            0      0.00%     64.34% # Type of FU issued
system.switch_cpus_1.iq.FU_type_0::SimdFloatReduceCmp            0      0.00%     64.34% # Type of FU issued
system.switch_cpus_1.iq.FU_type_0::SimdAes            0      0.00%     64.34% # Type of FU issued
system.switch_cpus_1.iq.FU_type_0::SimdAesMix            0      0.00%     64.34% # Type of FU issued
system.switch_cpus_1.iq.FU_type_0::SimdSha1Hash            0      0.00%     64.34% # Type of FU issued
system.switch_cpus_1.iq.FU_type_0::SimdSha1Hash2            0      0.00%     64.34% # Type of FU issued
system.switch_cpus_1.iq.FU_type_0::SimdSha256Hash            0      0.00%     64.34% # Type of FU issued
system.switch_cpus_1.iq.FU_type_0::SimdSha256Hash2            0      0.00%     64.34% # Type of FU issued
system.switch_cpus_1.iq.FU_type_0::SimdShaSigma2            0      0.00%     64.34% # Type of FU issued
system.switch_cpus_1.iq.FU_type_0::SimdShaSigma3            0      0.00%     64.34% # Type of FU issued
system.switch_cpus_1.iq.FU_type_0::SimdPredAlu            0      0.00%     64.34% # Type of FU issued
system.switch_cpus_1.iq.FU_type_0::MemRead     16255865      4.02%     68.36% # Type of FU issued
system.switch_cpus_1.iq.FU_type_0::MemWrite      2679473      0.66%     69.02% # Type of FU issued
system.switch_cpus_1.iq.FU_type_0::FloatMemRead     99376884     24.59%     93.61% # Type of FU issued
system.switch_cpus_1.iq.FU_type_0::FloatMemWrite     25844209      6.39%    100.00% # Type of FU issued
system.switch_cpus_1.iq.FU_type_0::IprAccess            0      0.00%    100.00% # Type of FU issued
system.switch_cpus_1.iq.FU_type_0::InstPrefetch            0      0.00%    100.00% # Type of FU issued
system.switch_cpus_1.iq.FU_type_0::total    404201661                       # Type of FU issued
system.switch_cpus_1.iq.fp_alu_accesses     372426547                       # Number of floating point alu accesses
system.switch_cpus_1.iq.fp_inst_queue_reads    741227157                       # Number of floating instruction queue reads
system.switch_cpus_1.iq.fp_inst_queue_wakeup_accesses    363186101                       # Number of floating instruction queue wakeup accesses
system.switch_cpus_1.iq.fp_inst_queue_writes    363539271                       # Number of floating instruction queue writes
system.switch_cpus_1.iq.fu_busy_cnt           4955391                       # FU busy when requested
system.switch_cpus_1.iq.fu_busy_rate         0.012260                       # FU busy rate (busy events/executed inst)
system.switch_cpus_1.iq.fu_full::No_OpClass            0      0.00%      0.00% # attempts to use FU when none available
system.switch_cpus_1.iq.fu_full::IntAlu           611      0.01%      0.01% # attempts to use FU when none available
system.switch_cpus_1.iq.fu_full::IntMult            0      0.00%      0.01% # attempts to use FU when none available
system.switch_cpus_1.iq.fu_full::IntDiv             0      0.00%      0.01% # attempts to use FU when none available
system.switch_cpus_1.iq.fu_full::FloatAdd            0      0.00%      0.01% # attempts to use FU when none available
system.switch_cpus_1.iq.fu_full::FloatCmp            0      0.00%      0.01% # attempts to use FU when none available
system.switch_cpus_1.iq.fu_full::FloatCvt            0      0.00%      0.01% # attempts to use FU when none available
system.switch_cpus_1.iq.fu_full::FloatMult            0      0.00%      0.01% # attempts to use FU when none available
system.switch_cpus_1.iq.fu_full::FloatMultAcc            0      0.00%      0.01% # attempts to use FU when none available
system.switch_cpus_1.iq.fu_full::FloatDiv            0      0.00%      0.01% # attempts to use FU when none available
system.switch_cpus_1.iq.fu_full::FloatMisc            0      0.00%      0.01% # attempts to use FU when none available
system.switch_cpus_1.iq.fu_full::FloatSqrt            0      0.00%      0.01% # attempts to use FU when none available
system.switch_cpus_1.iq.fu_full::SimdAdd            0      0.00%      0.01% # attempts to use FU when none available
system.switch_cpus_1.iq.fu_full::SimdAddAcc            0      0.00%      0.01% # attempts to use FU when none available
system.switch_cpus_1.iq.fu_full::SimdAlu       108851      2.20%      2.21% # attempts to use FU when none available
system.switch_cpus_1.iq.fu_full::SimdCmp            0      0.00%      2.21% # attempts to use FU when none available
system.switch_cpus_1.iq.fu_full::SimdCvt            0      0.00%      2.21% # attempts to use FU when none available
system.switch_cpus_1.iq.fu_full::SimdMisc            0      0.00%      2.21% # attempts to use FU when none available
system.switch_cpus_1.iq.fu_full::SimdMult            0      0.00%      2.21% # attempts to use FU when none available
system.switch_cpus_1.iq.fu_full::SimdMultAcc            0      0.00%      2.21% # attempts to use FU when none available
system.switch_cpus_1.iq.fu_full::SimdShift            0      0.00%      2.21% # attempts to use FU when none available
system.switch_cpus_1.iq.fu_full::SimdShiftAcc            0      0.00%      2.21% # attempts to use FU when none available
system.switch_cpus_1.iq.fu_full::SimdDiv            0      0.00%      2.21% # attempts to use FU when none available
system.switch_cpus_1.iq.fu_full::SimdSqrt            0      0.00%      2.21% # attempts to use FU when none available
system.switch_cpus_1.iq.fu_full::SimdFloatAdd       127301      2.57%      4.78% # attempts to use FU when none available
system.switch_cpus_1.iq.fu_full::SimdFloatAlu            0      0.00%      4.78% # attempts to use FU when none available
system.switch_cpus_1.iq.fu_full::SimdFloatCmp            0      0.00%      4.78% # attempts to use FU when none available
system.switch_cpus_1.iq.fu_full::SimdFloatCvt            0      0.00%      4.78% # attempts to use FU when none available
system.switch_cpus_1.iq.fu_full::SimdFloatDiv            0      0.00%      4.78% # attempts to use FU when none available
system.switch_cpus_1.iq.fu_full::SimdFloatMisc            0      0.00%      4.78% # attempts to use FU when none available
system.switch_cpus_1.iq.fu_full::SimdFloatMult       111215      2.24%      7.02% # attempts to use FU when none available
system.switch_cpus_1.iq.fu_full::SimdFloatMultAcc            0      0.00%      7.02% # attempts to use FU when none available
system.switch_cpus_1.iq.fu_full::SimdFloatSqrt            0      0.00%      7.02% # attempts to use FU when none available
system.switch_cpus_1.iq.fu_full::SimdReduceAdd            0      0.00%      7.02% # attempts to use FU when none available
system.switch_cpus_1.iq.fu_full::SimdReduceAlu            0      0.00%      7.02% # attempts to use FU when none available
system.switch_cpus_1.iq.fu_full::SimdReduceCmp            0      0.00%      7.02% # attempts to use FU when none available
system.switch_cpus_1.iq.fu_full::SimdFloatReduceAdd            0      0.00%      7.02% # attempts to use FU when none available
system.switch_cpus_1.iq.fu_full::SimdFloatReduceCmp            0      0.00%      7.02% # attempts to use FU when none available
system.switch_cpus_1.iq.fu_full::SimdAes            0      0.00%      7.02% # attempts to use FU when none available
system.switch_cpus_1.iq.fu_full::SimdAesMix            0      0.00%      7.02% # attempts to use FU when none available
system.switch_cpus_1.iq.fu_full::SimdSha1Hash            0      0.00%      7.02% # attempts to use FU when none available
system.switch_cpus_1.iq.fu_full::SimdSha1Hash2            0      0.00%      7.02% # attempts to use FU when none available
system.switch_cpus_1.iq.fu_full::SimdSha256Hash            0      0.00%      7.02% # attempts to use FU when none available
system.switch_cpus_1.iq.fu_full::SimdSha256Hash2            0      0.00%      7.02% # attempts to use FU when none available
system.switch_cpus_1.iq.fu_full::SimdShaSigma2            0      0.00%      7.02% # attempts to use FU when none available
system.switch_cpus_1.iq.fu_full::SimdShaSigma3            0      0.00%      7.02% # attempts to use FU when none available
system.switch_cpus_1.iq.fu_full::SimdPredAlu            0      0.00%      7.02% # attempts to use FU when none available
system.switch_cpus_1.iq.fu_full::MemRead      1183517     23.88%     30.91% # attempts to use FU when none available
system.switch_cpus_1.iq.fu_full::MemWrite       144748      2.92%     33.83% # attempts to use FU when none available
system.switch_cpus_1.iq.fu_full::FloatMemRead      3212772     64.83%     98.66% # attempts to use FU when none available
system.switch_cpus_1.iq.fu_full::FloatMemWrite        66376      1.34%    100.00% # attempts to use FU when none available
system.switch_cpus_1.iq.fu_full::IprAccess            0      0.00%    100.00% # attempts to use FU when none available
system.switch_cpus_1.iq.fu_full::InstPrefetch            0      0.00%    100.00% # attempts to use FU when none available
system.switch_cpus_1.iq.int_alu_accesses     36729151                       # Number of integer alu accesses
system.switch_cpus_1.iq.int_inst_queue_reads    315814142                       # Number of integer instruction queue reads
system.switch_cpus_1.iq.int_inst_queue_wakeup_accesses     33229676                       # Number of integer instruction queue wakeup accesses
system.switch_cpus_1.iq.int_inst_queue_writes     33334866                       # Number of integer instruction queue writes
system.switch_cpus_1.iq.iqInstsAdded        396514126                       # Number of instructions added to the IQ (excludes non-spec)
system.switch_cpus_1.iq.iqInstsIssued       404201661                       # Number of instructions issued
system.switch_cpus_1.iq.iqSquashedInstsExamined       356449                       # Number of squashed instructions iterated over during squash; mainly for profiling
system.switch_cpus_1.iq.iqSquashedInstsIssued         2305                       # Number of squashed instructions issued
system.switch_cpus_1.iq.iqSquashedOperandsExamined       289204                       # Number of squashed operands that are examined and possibly removed from graph
system.switch_cpus_1.iq.issued_per_cycle::samples    243680288                       # Number of insts issued each cycle
system.switch_cpus_1.iq.issued_per_cycle::mean     1.658738                       # Number of insts issued each cycle
system.switch_cpus_1.iq.issued_per_cycle::stdev     2.407227                       # Number of insts issued each cycle
system.switch_cpus_1.iq.issued_per_cycle::underflows            0      0.00%      0.00% # Number of insts issued each cycle
system.switch_cpus_1.iq.issued_per_cycle::0    141326417     58.00%     58.00% # Number of insts issued each cycle
system.switch_cpus_1.iq.issued_per_cycle::1     17082290      7.01%     65.01% # Number of insts issued each cycle
system.switch_cpus_1.iq.issued_per_cycle::2     16887931      6.93%     71.94% # Number of insts issued each cycle
system.switch_cpus_1.iq.issued_per_cycle::3     12750874      5.23%     77.17% # Number of insts issued each cycle
system.switch_cpus_1.iq.issued_per_cycle::4     14062864      5.77%     82.94% # Number of insts issued each cycle
system.switch_cpus_1.iq.issued_per_cycle::5     12652807      5.19%     88.13% # Number of insts issued each cycle
system.switch_cpus_1.iq.issued_per_cycle::6     13768694      5.65%     93.78% # Number of insts issued each cycle
system.switch_cpus_1.iq.issued_per_cycle::7      8224056      3.37%     97.16% # Number of insts issued each cycle
system.switch_cpus_1.iq.issued_per_cycle::8      6924355      2.84%    100.00% # Number of insts issued each cycle
system.switch_cpus_1.iq.issued_per_cycle::overflows            0      0.00%    100.00% # Number of insts issued each cycle
system.switch_cpus_1.iq.issued_per_cycle::min_value            0                       # Number of insts issued each cycle
system.switch_cpus_1.iq.issued_per_cycle::max_value            8                       # Number of insts issued each cycle
system.switch_cpus_1.iq.issued_per_cycle::total    243680288                       # Number of insts issued each cycle
system.switch_cpus_1.iq.rate                 1.658738                       # Inst issue rate
system.switch_cpus_1.iq.vec_alu_accesses            0                       # Number of vector alu accesses
system.switch_cpus_1.iq.vec_inst_queue_reads            0                       # Number of vector instruction queue reads
system.switch_cpus_1.iq.vec_inst_queue_wakeup_accesses            0                       # Number of vector instruction queue wakeup accesses
system.switch_cpus_1.iq.vec_inst_queue_writes            0                       # Number of vector instruction queue writes
system.switch_cpus_1.itb.rdAccesses                 0                       # TLB accesses on read requests
system.switch_cpus_1.itb.rdMisses                   0                       # TLB misses on read requests
system.switch_cpus_1.itb.wrAccesses          25389445                       # TLB accesses on write requests
system.switch_cpus_1.itb.wrMisses                   6                       # TLB misses on write requests
system.switch_cpus_1.memDep0.conflictingLoads      2432624                       # Number of conflicting loads.
system.switch_cpus_1.memDep0.conflictingStores      1017862                       # Number of conflicting stores.
system.switch_cpus_1.memDep0.insertedLoads    107891237                       # Number of loads inserted to the mem dependence unit.
system.switch_cpus_1.memDep0.insertedStores     28537729                       # Number of stores inserted to the mem dependence unit.
system.switch_cpus_1.misc_regfile_reads     150995447                       # number of misc regfile reads
system.switch_cpus_1.numCycles              243680288                       # number of cpu cycles simulated
system.switch_cpus_1.numWorkItemsCompleted            0                       # number of work items this cpu completed
system.switch_cpus_1.numWorkItemsStarted            0                       # number of work items this cpu started
system.switch_cpus_1.rename.BlockCycles      58541919                       # Number of cycles rename is blocking
system.switch_cpus_1.rename.CommittedMaps    376956018                       # Number of HB maps that are committed
system.switch_cpus_1.rename.IQFullEvents      7673175                       # Number of times rename has blocked due to IQ full
system.switch_cpus_1.rename.IdleCycles       24182844                       # Number of cycles rename is idle
system.switch_cpus_1.rename.LQFullEvents     49103908                       # Number of times rename has blocked due to LQ full
system.switch_cpus_1.rename.ROBFullEvents        20884                       # Number of times rename has blocked due to ROB full
system.switch_cpus_1.rename.RenameLookups    978878900                       # Number of register rename lookups that rename has made
system.switch_cpus_1.rename.RenamedInsts    396550778                       # Number of instructions processed by rename
system.switch_cpus_1.rename.RenamedOperands    377306142                       # Number of destination operands rename has renamed
system.switch_cpus_1.rename.RunCycles        54067143                       # Number of cycles rename is running
system.switch_cpus_1.rename.SQFullEvents     50245864                       # Number of times rename has blocked due to SQ full
system.switch_cpus_1.rename.SquashCycles         7934                       # Number of cycles rename is squashing
system.switch_cpus_1.rename.UnblockCycles    106880383                       # Number of cycles rename is unblocking
system.switch_cpus_1.rename.UndoneMaps         350057                       # Number of HB maps that are undone due to squashing
system.switch_cpus_1.rename.fp_rename_lookups    547882579                       # Number of floating rename lookups
system.switch_cpus_1.rename.int_rename_lookups    286099690                       # Number of integer rename lookups
system.switch_cpus_1.rename.serializeStallCycles            0                       # count of cycles rename stalled for serializing inst
system.switch_cpus_1.rename.serializingInsts            0                       # count of serializing insts renamed
system.switch_cpus_1.rename.skidInsts        41386932                       # count of insts added to the skid buffer
system.switch_cpus_1.rename.tempSerializingInsts            0                       # count of temporary serializing insts renamed
system.switch_cpus_1.rob.rob_reads          611583301                       # The number of ROB reads
system.switch_cpus_1.rob.rob_writes         793083499                       # The number of ROB writes
system.tol2bus.snoop_filter.hit_multi_requests            0                       # Number of requests hitting in the snoop filter with multiple (>1) holders of the requested data.
system.tol2bus.snoop_filter.hit_multi_snoops            0                       # Number of snoops hitting in the snoop filter with multiple (>1) holders of the requested data.
system.tol2bus.snoop_filter.hit_single_requests      3763261                       # Number of requests hitting in the snoop filter with a single holder of the requested data.
system.tol2bus.snoop_filter.hit_single_snoops       101538                       # Number of snoops hitting in the snoop filter with a single holder of the requested data.
system.tol2bus.snoop_filter.tot_requests      7495732                       # Total number of requests made to the snoop filter.
system.tol2bus.snoop_filter.tot_snoops         101538                       # Total number of snoops made to the snoop filter.
system.tol3bus.snoop_filter.hit_multi_requests            0                       # Number of requests hitting in the snoop filter with multiple (>1) holders of the requested data.
system.tol3bus.snoop_filter.hit_multi_snoops            0                       # Number of snoops hitting in the snoop filter with multiple (>1) holders of the requested data.
system.tol3bus.snoop_filter.hit_single_requests      3352517                       # Number of requests hitting in the snoop filter with a single holder of the requested data.
system.tol3bus.snoop_filter.hit_single_snoops       159407                       # Number of snoops hitting in the snoop filter with a single holder of the requested data.
system.tol3bus.snoop_filter.tot_requests      6704959                       # Total number of requests made to the snoop filter.
system.tol3bus.snoop_filter.tot_snoops         159407                       # Total number of snoops made to the snoop filter.
system.membus.trans_dist::ReadResp             689772                       # Transaction distribution
system.membus.trans_dist::WritebackDirty       357060                       # Transaction distribution
system.membus.trans_dist::CleanEvict           576598                       # Transaction distribution
system.membus.trans_dist::ReadExReq            242548                       # Transaction distribution
system.membus.trans_dist::ReadExResp           242548                       # Transaction distribution
system.membus.trans_dist::ReadSharedReq        689772                       # Transaction distribution
system.membus.pkt_count_system.l3.mem_side::system.mem_ctrls.port      2798298                       # Packet count per connected master and slave (bytes)
system.membus.pkt_count_system.l3.mem_side::total      2798298                       # Packet count per connected master and slave (bytes)
system.membus.pkt_count::total                2798298                       # Packet count per connected master and slave (bytes)
system.membus.pkt_size_system.l3.mem_side::system.mem_ctrls.port     82520320                       # Cumulative packet size per connected master and slave (bytes)
system.membus.pkt_size_system.l3.mem_side::total     82520320                       # Cumulative packet size per connected master and slave (bytes)
system.membus.pkt_size::total                82520320                       # Cumulative packet size per connected master and slave (bytes)
system.membus.snoops                                0                       # Total snoops (count)
system.membus.snoopTraffic                          0                       # Total snoop traffic (bytes)
system.membus.snoop_fanout::samples            932320                       # Request fanout histogram
system.membus.snoop_fanout::mean                    0                       # Request fanout histogram
system.membus.snoop_fanout::stdev                   0                       # Request fanout histogram
system.membus.snoop_fanout::underflows              0      0.00%      0.00% # Request fanout histogram
system.membus.snoop_fanout::0                  932320    100.00%    100.00% # Request fanout histogram
system.membus.snoop_fanout::1                       0      0.00%    100.00% # Request fanout histogram
system.membus.snoop_fanout::overflows               0      0.00%    100.00% # Request fanout histogram
system.membus.snoop_fanout::min_value               0                       # Request fanout histogram
system.membus.snoop_fanout::max_value               0                       # Request fanout histogram
system.membus.snoop_fanout::total              932320                       # Request fanout histogram
system.membus.reqLayer2.occupancy          3486525500                       # Layer occupancy (ticks)
system.membus.reqLayer2.utilization               2.9                       # Layer utilization (%)
system.membus.respLayer1.occupancy         5129049250                       # Layer occupancy (ticks)
system.membus.respLayer1.utilization              4.2                       # Layer utilization (%)
system.membus.power_state.pwrStateResidencyTicks::UNDEFINED 1346235355000                       # Cumulative time (in ticks) in various power states
system.switch_cpus_1.dtb.walker.power_state.pwrStateResidencyTicks::UNDEFINED 1346235355000                       # Cumulative time (in ticks) in various power states
system.switch_cpus_1.itb.walker.power_state.pwrStateResidencyTicks::UNDEFINED 1346235355000                       # Cumulative time (in ticks) in various power states
system.switch_cpus_1.power_state.pwrStateResidencyTicks::OFF 1346235355000                       # Cumulative time (in ticks) in various power states
system.switch_cpus.dtb.walker.power_state.pwrStateResidencyTicks::UNDEFINED 1346235355000                       # Cumulative time (in ticks) in various power states
system.switch_cpus.itb.walker.power_state.pwrStateResidencyTicks::UNDEFINED 1346235355000                       # Cumulative time (in ticks) in various power states
system.switch_cpus.power_state.numTransitions            1                       # Number of power state transitions
system.switch_cpus.power_state.pwrStateResidencyTicks::OFF 1346235355000                       # Cumulative time (in ticks) in various power states
system.tol2bus.trans_dist::ReadResp           3079038                       # Transaction distribution
system.tol2bus.trans_dist::WritebackDirty      1057338                       # Transaction distribution
system.tol2bus.trans_dist::WritebackClean            6                       # Transaction distribution
system.tol2bus.trans_dist::CleanEvict         3207657                       # Transaction distribution
system.tol2bus.trans_dist::UpgradeReq           30790                       # Transaction distribution
system.tol2bus.trans_dist::UpgradeResp          30790                       # Transaction distribution
system.tol2bus.trans_dist::ReadExReq           653433                       # Transaction distribution
system.tol2bus.trans_dist::ReadExResp          653433                       # Transaction distribution
system.tol2bus.trans_dist::ReadCleanReq       3079038                       # Transaction distribution
system.tol2bus.pkt_count_system.cpu.icache.mem_side::system.l2.cpu_side           18                       # Packet count per connected master and slave (bytes)
system.tol2bus.pkt_count_system.cpu.dcache.mem_side::system.l2.cpu_side     11258975                       # Packet count per connected master and slave (bytes)
system.tol2bus.pkt_count::total              11258993                       # Packet count per connected master and slave (bytes)
system.tol2bus.pkt_size_system.cpu.icache.mem_side::system.l2.cpu_side          768                       # Cumulative packet size per connected master and slave (bytes)
system.tol2bus.pkt_size_system.cpu.dcache.mem_side::system.l2.cpu_side    282667904                       # Cumulative packet size per connected master and slave (bytes)
system.tol2bus.pkt_size::total              282668672                       # Cumulative packet size per connected master and slave (bytes)
system.tol2bus.snoops                          532530                       # Total snoops (count)
system.tol2bus.snoopTraffic                  23879488                       # Total snoop traffic (bytes)
system.tol2bus.snoop_fanout::samples          4295791                       # Request fanout histogram
system.tol2bus.snoop_fanout::mean            0.023637                       # Request fanout histogram
system.tol2bus.snoop_fanout::stdev           0.151914                       # Request fanout histogram
system.tol2bus.snoop_fanout::underflows             0      0.00%      0.00% # Request fanout histogram
system.tol2bus.snoop_fanout::0                4194253     97.64%     97.64% # Request fanout histogram
system.tol2bus.snoop_fanout::1                 101538      2.36%    100.00% # Request fanout histogram
system.tol2bus.snoop_fanout::2                      0      0.00%    100.00% # Request fanout histogram
system.tol2bus.snoop_fanout::3                      0      0.00%    100.00% # Request fanout histogram
system.tol2bus.snoop_fanout::4                      0      0.00%    100.00% # Request fanout histogram
system.tol2bus.snoop_fanout::overflows              0      0.00%    100.00% # Request fanout histogram
system.tol2bus.snoop_fanout::min_value              0                       # Request fanout histogram
system.tol2bus.snoop_fanout::max_value              1                       # Request fanout histogram
system.tol2bus.snoop_fanout::total            4295791                       # Request fanout histogram
system.tol2bus.reqLayer0.occupancy         4432093000                       # Layer occupancy (ticks)
system.tol2bus.reqLayer0.utilization              3.6                       # Layer utilization (%)
system.tol2bus.respLayer1.occupancy        5614092500                       # Layer occupancy (ticks)
system.tol2bus.respLayer1.utilization             4.6                       # Layer utilization (%)
system.tol2bus.respLayer0.occupancy              9000                       # Layer occupancy (ticks)
system.tol2bus.respLayer0.utilization             0.0                       # Layer utilization (%)
system.tol2bus.power_state.pwrStateResidencyTicks::UNDEFINED 1346235355000                       # Cumulative time (in ticks) in various power states
system.voltage_domain.voltage                       1                       # Voltage in Volts
system.clk_domain.clock                          1000                       # Clock period in ticks
system.l2.demand_hits::.switch_cpus_1.data       380029                       # number of demand (read+write) hits
system.l2.demand_hits::total                   380029                       # number of demand (read+write) hits
system.l2.overall_hits::.switch_cpus_1.data       380029                       # number of overall hits
system.l2.overall_hits::total                  380029                       # number of overall hits
system.l2.demand_misses::.switch_cpus_1.inst            6                       # number of demand (read+write) misses
system.l2.demand_misses::.switch_cpus_1.data      3352436                       # number of demand (read+write) misses
system.l2.demand_misses::total                3352442                       # number of demand (read+write) misses
system.l2.overall_misses::.switch_cpus_1.inst            6                       # number of overall misses
system.l2.overall_misses::.switch_cpus_1.data      3352436                       # number of overall misses
system.l2.overall_misses::total               3352442                       # number of overall misses
system.l2.demand_miss_latency::.switch_cpus_1.inst       631500                       # number of demand (read+write) miss cycles
system.l2.demand_miss_latency::.switch_cpus_1.data 181923727500                       # number of demand (read+write) miss cycles
system.l2.demand_miss_latency::total     181924359000                       # number of demand (read+write) miss cycles
system.l2.overall_miss_latency::.switch_cpus_1.inst       631500                       # number of overall miss cycles
system.l2.overall_miss_latency::.switch_cpus_1.data 181923727500                       # number of overall miss cycles
system.l2.overall_miss_latency::total    181924359000                       # number of overall miss cycles
system.l2.demand_accesses::.switch_cpus_1.inst            6                       # number of demand (read+write) accesses
system.l2.demand_accesses::.switch_cpus_1.data      3732465                       # number of demand (read+write) accesses
system.l2.demand_accesses::total              3732471                       # number of demand (read+write) accesses
system.l2.overall_accesses::.switch_cpus_1.inst            6                       # number of overall (read+write) accesses
system.l2.overall_accesses::.switch_cpus_1.data      3732465                       # number of overall (read+write) accesses
system.l2.overall_accesses::total             3732471                       # number of overall (read+write) accesses
system.l2.demand_miss_rate::.switch_cpus_1.inst            1                       # miss rate for demand accesses
system.l2.demand_miss_rate::.switch_cpus_1.data     0.898183                       # miss rate for demand accesses
system.l2.demand_miss_rate::total            0.898183                       # miss rate for demand accesses
system.l2.overall_miss_rate::.switch_cpus_1.inst            1                       # miss rate for overall accesses
system.l2.overall_miss_rate::.switch_cpus_1.data     0.898183                       # miss rate for overall accesses
system.l2.overall_miss_rate::total           0.898183                       # miss rate for overall accesses
system.l2.demand_avg_miss_latency::.switch_cpus_1.inst       105250                       # average overall miss latency
system.l2.demand_avg_miss_latency::.switch_cpus_1.data 54266.129913                       # average overall miss latency
system.l2.demand_avg_miss_latency::total 54266.221161                       # average overall miss latency
system.l2.overall_avg_miss_latency::.switch_cpus_1.inst       105250                       # average overall miss latency
system.l2.overall_avg_miss_latency::.switch_cpus_1.data 54266.129913                       # average overall miss latency
system.l2.overall_avg_miss_latency::total 54266.221161                       # average overall miss latency
system.l2.blocked_cycles::no_mshrs                  0                       # number of cycles access was blocked
system.l2.blocked_cycles::no_targets                0                       # number of cycles access was blocked
system.l2.blocked::no_mshrs                         0                       # number of cycles access was blocked
[...]
system.cpu.dcache.demand_miss_latency::.switch_cpus.data  35482880500                       # number of demand (read+write) miss cycles
system.cpu.dcache.demand_miss_latency::.switch_cpus_1.data 213267558524                       # number of demand (read+write) miss cycles
system.cpu.dcache.demand_miss_latency::total 248750439024                       # number of demand (read+write) miss cycles
system.cpu.dcache.overall_miss_latency::.switch_cpus.data  35482880500                       # number of overall miss cycles
system.cpu.dcache.overall_miss_latency::.switch_cpus_1.data 213267558524                       # number of overall miss cycles
system.cpu.dcache.overall_miss_latency::total 248750439024                       # number of overall miss cycles
system.cpu.dcache.demand_accesses::.cpu.data    413943439                       # number of demand (read+write) accesses
system.cpu.dcache.demand_accesses::.switch_cpus.data     27203602                       # number of demand (read+write) accesses
system.cpu.dcache.demand_accesses::.switch_cpus_1.data    129554626                       # number of demand (read+write) accesses
system.cpu.dcache.demand_accesses::total    570701667                       # number of demand (read+write) accesses
system.cpu.dcache.overall_accesses::.cpu.data    413943439                       # number of overall (read+write) accesses
system.cpu.dcache.overall_accesses::.switch_cpus.data     27203602                       # number of overall (read+write) accesses
system.cpu.dcache.overall_accesses::.switch_cpus_1.data    129554626                       # number of overall (read+write) accesses
system.cpu.dcache.overall_accesses::total    570701667                       # number of overall (read+write) accesses
system.cpu.dcache.demand_miss_rate::.cpu.data     0.053682                       # miss rate for demand accesses
system.cpu.dcache.demand_miss_rate::.switch_cpus.data     0.026235                       # miss rate for demand accesses
system.cpu.dcache.demand_miss_rate::.switch_cpus_1.data     0.035035                       # miss rate for demand accesses
system.cpu.dcache.demand_miss_rate::total     0.048141                       # miss rate for demand accesses
system.cpu.dcache.overall_miss_rate::.cpu.data     0.053682                       # miss rate for overall accesses
system.cpu.dcache.overall_miss_rate::.switch_cpus.data     0.026235                       # miss rate for overall accesses
system.cpu.dcache.overall_miss_rate::.switch_cpus_1.data     0.035035                       # miss rate for overall accesses
system.cpu.dcache.overall_miss_rate::total     0.048141                       # miss rate for overall accesses
system.cpu.dcache.demand_avg_miss_latency::.switch_cpus.data 49718.333058                       # average overall miss latency
system.cpu.dcache.demand_avg_miss_latency::.switch_cpus_1.data 46985.623808                       # average overall miss latency
system.cpu.dcache.demand_avg_miss_latency::total  9053.967741                       # average overall miss latency
system.cpu.dcache.overall_avg_miss_latency::.switch_cpus.data 49718.333058                       # average overall miss latency
system.cpu.dcache.overall_avg_miss_latency::.switch_cpus_1.data 46985.623808                       # average overall miss latency
system.cpu.dcache.overall_avg_miss_latency::total  9053.967741                       # average overall miss latency
system.cpu.dcache.blocked_cycles::no_mshrs     48876617                       # number of cycles access was blocked
system.cpu.dcache.blocked_cycles::no_targets            0                       # number of cycles access was blocked
system.cpu.dcache.blocked::no_mshrs           1234149                       # number of cycles access was blocked
system.cpu.dcache.blocked::no_targets               0                       # number of cycles access was blocked
system.cpu.dcache.avg_blocked_cycles::no_mshrs    39.603498                       # average number of cycles each access was blocked
system.cpu.dcache.avg_blocked_cycles::no_targets          nan                       # average number of cycles each access was blocked
system.cpu.dcache.writebacks::.writebacks     16183785                       # number of writebacks
system.cpu.dcache.writebacks::total          16183785                       # number of writebacks
system.cpu.dcache.demand_mshr_hits::.switch_cpus_1.data       776158                       # number of demand (read+write) MSHR hits
system.cpu.dcache.demand_mshr_hits::total       776158                       # number of demand (read+write) MSHR hits
system.cpu.dcache.overall_mshr_hits::.switch_cpus_1.data       776158                       # number of overall MSHR hits
system.cpu.dcache.overall_mshr_hits::total       776158                       # number of overall MSHR hits
system.cpu.dcache.demand_mshr_misses::.switch_cpus.data       713678                       # number of demand (read+write) MSHR misses
system.cpu.dcache.demand_mshr_misses::.switch_cpus_1.data      3762838                       # number of demand (read+write) MSHR misses
system.cpu.dcache.demand_mshr_misses::total      4476516                       # number of demand (read+write) MSHR misses
system.cpu.dcache.overall_mshr_misses::.switch_cpus.data       713678                       # number of overall MSHR misses
system.cpu.dcache.overall_mshr_misses::.switch_cpus_1.data      3762838                       # number of overall MSHR misses
system.cpu.dcache.overall_mshr_misses::total      4476516                       # number of overall MSHR misses
system.cpu.dcache.demand_mshr_miss_latency::.switch_cpus.data  34769202500                       # number of demand (read+write) MSHR miss cycles
system.cpu.dcache.demand_mshr_miss_latency::.switch_cpus_1.data 192651842540                       # number of demand (read+write) MSHR miss cycles
system.cpu.dcache.demand_mshr_miss_latency::total 227421045040                       # number of demand (read+write) MSHR miss cycles
system.cpu.dcache.overall_mshr_miss_latency::.switch_cpus.data  34769202500                       # number of overall MSHR miss cycles
system.cpu.dcache.overall_mshr_miss_latency::.switch_cpus_1.data 192651842540                       # number of overall MSHR miss cycles
system.cpu.dcache.overall_mshr_miss_latency::total 227421045040                       # number of overall MSHR miss cycles
system.cpu.dcache.demand_mshr_miss_rate::.switch_cpus.data     0.026235                       # mshr miss rate for demand accesses
system.cpu.dcache.demand_mshr_miss_rate::.switch_cpus_1.data     0.029044                       # mshr miss rate for demand accesses
system.cpu.dcache.demand_mshr_miss_rate::total     0.007844                       # mshr miss rate for demand accesses
system.cpu.dcache.overall_mshr_miss_rate::.switch_cpus.data     0.026235                       # mshr miss rate for overall accesses
system.cpu.dcache.overall_mshr_miss_rate::.switch_cpus_1.data     0.029044                       # mshr miss rate for overall accesses
system.cpu.dcache.overall_mshr_miss_rate::total     0.007844                       # mshr miss rate for overall accesses
system.cpu.dcache.demand_avg_mshr_miss_latency::.switch_cpus.data 48718.333058                       # average overall mshr miss latency
system.cpu.dcache.demand_avg_mshr_miss_latency::.switch_cpus_1.data 51198.548154                       # average overall mshr miss latency
system.cpu.dcache.demand_avg_mshr_miss_latency::total 50803.134634                       # average overall mshr miss latency
system.cpu.dcache.overall_avg_mshr_miss_latency::.switch_cpus.data 48718.333058                       # average overall mshr miss latency
system.cpu.dcache.overall_avg_mshr_miss_latency::.switch_cpus_1.data 51198.548154                       # average overall mshr miss latency
system.cpu.dcache.overall_avg_mshr_miss_latency::total 50803.134634                       # average overall mshr miss latency
system.cpu.dcache.replacements               26632337                       # number of replacements
system.cpu.dcache.ReadReq_hits::.cpu.data    284873007                       # number of ReadReq hits
system.cpu.dcache.ReadReq_hits::.switch_cpus.data     20944812                       # number of ReadReq hits
system.cpu.dcache.ReadReq_hits::.switch_cpus_1.data     97217618                       # number of ReadReq hits
system.cpu.dcache.ReadReq_hits::total       403035437                       # number of ReadReq hits
system.cpu.dcache.ReadReq_misses::.cpu.data      6850984                       # number of ReadReq misses
system.cpu.dcache.ReadReq_misses::.switch_cpus.data       584614                       # number of ReadReq misses
system.cpu.dcache.ReadReq_misses::.switch_cpus_1.data      3854773                       # number of ReadReq misses
system.cpu.dcache.ReadReq_misses::total      11290371                       # number of ReadReq misses
system.cpu.dcache.ReadReq_miss_latency::.switch_cpus.data  28946162000                       # number of ReadReq miss cycles
system.cpu.dcache.ReadReq_miss_latency::.switch_cpus_1.data 177519217000                       # number of ReadReq miss cycles
system.cpu.dcache.ReadReq_miss_latency::total 206465379000                       # number of ReadReq miss cycles
system.cpu.dcache.ReadReq_accesses::.cpu.data    291723991                       # number of ReadReq accesses(hits+misses)
system.cpu.dcache.ReadReq_accesses::.switch_cpus.data     21529426                       # number of ReadReq accesses(hits+misses)
system.cpu.dcache.ReadReq_accesses::.switch_cpus_1.data    101072391                       # number of ReadReq accesses(hits+misses)
system.cpu.dcache.ReadReq_accesses::total    414325808                       # number of ReadReq accesses(hits+misses)
system.cpu.dcache.ReadReq_miss_rate::.cpu.data     0.023484                       # miss rate for ReadReq accesses
system.cpu.dcache.ReadReq_miss_rate::.switch_cpus.data     0.027154                       # miss rate for ReadReq accesses
system.cpu.dcache.ReadReq_miss_rate::.switch_cpus_1.data     0.038139                       # miss rate for ReadReq accesses
system.cpu.dcache.ReadReq_miss_rate::total     0.027250                       # miss rate for ReadReq accesses
system.cpu.dcache.ReadReq_avg_miss_latency::.switch_cpus.data 49513.289110                       # average ReadReq miss latency
system.cpu.dcache.ReadReq_avg_miss_latency::.switch_cpus_1.data 46051.795268                       # average ReadReq miss latency
system.cpu.dcache.ReadReq_avg_miss_latency::total 18286.855144                       # average ReadReq miss latency
system.cpu.dcache.ReadReq_mshr_hits::.switch_cpus_1.data       775707                       # number of ReadReq MSHR hits
system.cpu.dcache.ReadReq_mshr_hits::total       775707                       # number of ReadReq MSHR hits
system.cpu.dcache.ReadReq_mshr_misses::.switch_cpus.data       584614                       # number of ReadReq MSHR misses
system.cpu.dcache.ReadReq_mshr_misses::.switch_cpus_1.data      3079066                       # number of ReadReq MSHR misses
system.cpu.dcache.ReadReq_mshr_misses::total      3663680                       # number of ReadReq MSHR misses
system.cpu.dcache.ReadReq_mshr_miss_latency::.switch_cpus.data  28361548000                       # number of ReadReq MSHR miss cycles
system.cpu.dcache.ReadReq_mshr_miss_latency::.switch_cpus_1.data 157588445000                       # number of ReadReq MSHR miss cycles
system.cpu.dcache.ReadReq_mshr_miss_latency::total 185949993000                       # number of ReadReq MSHR miss cycles
system.cpu.dcache.ReadReq_mshr_miss_rate::.switch_cpus.data     0.027154                       # mshr miss rate for ReadReq accesses
system.cpu.dcache.ReadReq_mshr_miss_rate::.switch_cpus_1.data     0.030464                       # mshr miss rate for ReadReq accesses
system.cpu.dcache.ReadReq_mshr_miss_rate::total     0.008843                       # mshr miss rate for ReadReq accesses
system.cpu.dcache.ReadReq_avg_mshr_miss_latency::.switch_cpus.data 48513.289110                       # average ReadReq mshr miss latency
system.cpu.dcache.ReadReq_avg_mshr_miss_latency::.switch_cpus_1.data 51180.599896                       # average ReadReq mshr miss latency
system.cpu.dcache.ReadReq_avg_mshr_miss_latency::total 50754.976690                       # average ReadReq mshr miss latency
system.cpu.dcache.WriteReq_hits::.cpu.data    106848915                       # number of WriteReq hits
system.cpu.dcache.WriteReq_hits::.switch_cpus.data      5545112                       # number of WriteReq hits
system.cpu.dcache.WriteReq_hits::.switch_cpus_1.data     27798012                       # number of WriteReq hits
system.cpu.dcache.WriteReq_hits::total      140192039                       # number of WriteReq hits
system.cpu.dcache.WriteReq_misses::.cpu.data     15370533                       # number of WriteReq misses
system.cpu.dcache.WriteReq_misses::.switch_cpus.data       129064                       # number of WriteReq misses
system.cpu.dcache.WriteReq_misses::.switch_cpus_1.data       684223                       # number of WriteReq misses
system.cpu.dcache.WriteReq_misses::total     16183820                       # number of WriteReq misses
system.cpu.dcache.WriteReq_miss_latency::.switch_cpus.data   6536718500                       # number of WriteReq miss cycles
system.cpu.dcache.WriteReq_miss_latency::.switch_cpus_1.data  35748341524                       # number of WriteReq miss cycles
system.cpu.dcache.WriteReq_miss_latency::total  42285060024                       # number of WriteReq miss cycles
system.cpu.dcache.WriteReq_accesses::.cpu.data    122219448                       # number of WriteReq accesses(hits+misses)
system.cpu.dcache.WriteReq_accesses::.switch_cpus.data      5674176                       # number of WriteReq accesses(hits+misses)
system.cpu.dcache.WriteReq_accesses::.switch_cpus_1.data     28482235                       # number of WriteReq accesses(hits+misses)
system.cpu.dcache.WriteReq_accesses::total    156375859                       # number of WriteReq accesses(hits+misses)
system.cpu.dcache.WriteReq_miss_rate::.cpu.data     0.125762                       # miss rate for WriteReq accesses
system.cpu.dcache.WriteReq_miss_rate::.switch_cpus.data     0.022746                       # miss rate for WriteReq accesses
system.cpu.dcache.WriteReq_miss_rate::.switch_cpus_1.data     0.024023                       # miss rate for WriteReq accesses
system.cpu.dcache.WriteReq_miss_rate::total     0.103493                       # miss rate for WriteReq accesses
system.cpu.dcache.WriteReq_avg_miss_latency::.switch_cpus.data 50647.109186                       # average WriteReq miss latency
system.cpu.dcache.WriteReq_avg_miss_latency::.switch_cpus_1.data 52246.623577                       # average WriteReq miss latency
system.cpu.dcache.WriteReq_avg_miss_latency::total  2612.798463                       # average WriteReq miss latency
system.cpu.dcache.WriteReq_mshr_hits::.switch_cpus_1.data          451                       # number of WriteReq MSHR hits
system.cpu.dcache.WriteReq_mshr_hits::total          451                       # number of WriteReq MSHR hits
system.cpu.dcache.WriteReq_mshr_misses::.switch_cpus.data       129064                       # number of WriteReq MSHR misses
system.cpu.dcache.WriteReq_mshr_misses::.switch_cpus_1.data       683772                       # number of WriteReq MSHR misses
system.cpu.dcache.WriteReq_mshr_misses::total       812836                       # number of WriteReq MSHR misses
system.cpu.dcache.WriteReq_mshr_miss_latency::.switch_cpus.data   6407654500                       # number of WriteReq MSHR miss cycles
system.cpu.dcache.WriteReq_mshr_miss_latency::.switch_cpus_1.data  35063397540                       # number of WriteReq MSHR miss cycles
system.cpu.dcache.WriteReq_mshr_miss_latency::total  41471052040                       # number of WriteReq MSHR miss cycles
system.cpu.dcache.WriteReq_mshr_miss_rate::.switch_cpus.data     0.022746                       # mshr miss rate for WriteReq accesses
system.cpu.dcache.WriteReq_mshr_miss_rate::.switch_cpus_1.data     0.024007                       # mshr miss rate for WriteReq accesses
system.cpu.dcache.WriteReq_mshr_miss_rate::total     0.005198                       # mshr miss rate for WriteReq accesses
system.cpu.dcache.WriteReq_avg_mshr_miss_latency::.switch_cpus.data 49647.109186                       # average WriteReq mshr miss latency
system.cpu.dcache.WriteReq_avg_mshr_miss_latency::.switch_cpus_1.data 51279.370229                       # average WriteReq mshr miss latency
system.cpu.dcache.WriteReq_avg_mshr_miss_latency::total 51020.196005                       # average WriteReq mshr miss latency
system.cpu.dcache.power_state.pwrStateResidencyTicks::UNDEFINED 1346235355000                       # Cumulative time (in ticks) in various power states
system.cpu.dcache.tags.tagsinuse           511.989643                       # Cycle average of tags in use
system.cpu.dcache.tags.total_refs           569944938                       # Total number of references to valid blocks.
system.cpu.dcache.tags.sampled_refs          26632849                       # Sample count of references to valid blocks.
system.cpu.dcache.tags.avg_refs             21.400074                       # Average number of references to valid blocks.
system.cpu.dcache.tags.warmup_cycle              1500                       # Cycle when the warmup percentage was hit.
system.cpu.dcache.tags.occ_blocks::.cpu.data   410.369785                       # Average occupied blocks per requestor
system.cpu.dcache.tags.occ_blocks::.switch_cpus.data    55.298130                       # Average occupied blocks per requestor
system.cpu.dcache.tags.occ_blocks::.switch_cpus_1.data    46.321729                       # Average occupied blocks per requestor
system.cpu.dcache.tags.occ_percent::.cpu.data     0.801503                       # Average percentage of cache occupancy
system.cpu.dcache.tags.occ_percent::.switch_cpus.data     0.108004                       # Average percentage of cache occupancy
system.cpu.dcache.tags.occ_percent::.switch_cpus_1.data     0.090472                       # Average percentage of cache occupancy
system.cpu.dcache.tags.occ_percent::total     0.999980                       # Average percentage of cache occupancy
system.cpu.dcache.tags.occ_task_id_blocks::1024          512                       # Occupied blocks per task id
system.cpu.dcache.tags.age_task_id_blocks_1024::0          132                       # Occupied blocks per task id
system.cpu.dcache.tags.age_task_id_blocks_1024::1          324                       # Occupied blocks per task id
system.cpu.dcache.tags.age_task_id_blocks_1024::2           56                       # Occupied blocks per task id
system.cpu.dcache.tags.occ_task_id_percent::1024            1                       # Percentage of cache occupancy per task id
system.cpu.dcache.tags.tag_accesses        1168036183                       # Number of tag accesses
system.cpu.dcache.tags.data_accesses       1168036183                       # Number of data accesses
system.cpu.dcache.tags.power_state.pwrStateResidencyTicks::UNDEFINED 1346235355000                       # Cumulative time (in ticks) in various power states
system.cpu.power_state.numTransitions               2                       # Number of power state transitions
system.cpu.power_state.pwrStateResidencyTicks::ON 1078753131000                       # Cumulative time (in ticks) in various power states
system.cpu.power_state.pwrStateResidencyTicks::OFF 267482224000                       # Cumulative time (in ticks) in various power states

---------- End Simulation Statistics   ----------
